file 20985271 1713525642                                        
version 3
run CBR-UL-0-20240419-12:15:21-155813
attr configname CBR-UL
attr datetime 20240419-12:15:21
attr datetimef 20240419-121521
attr experiment CBR-UL
attr inifile omnetpp.ini
attr iterationvars ""
attr iterationvarsd ""
attr iterationvarsf ""
attr measurement ""
attr network Eastleigh_5GNet
attr processid 155813
attr repetition 0
attr replication #0
attr resultdir results
attr runnumber 0
attr seedset 0
config image-path ../images:../../inet4.5/images:../../simu5g/images
config *.server.app[*].typename CbrReceiver
config *.server.app[*].localPort "3000 + ancestorIndex(0)"
config *.nrUe*.app[*].typename CbrSender
config *.nrUe*.app[*].PacketSize "int(uniform(20, 100))"
config *.nrUe*.app[*].sampling_time 0.02s
config *.nrUe*.app[*].destAddress "\"server\""
config *.nrUe*.app[*].destPort "3000 + ancestorIndex(0)"
config *.nrUe*.app[*].localPort "3088 + ancestorIndex(0)"
config *.nrUe*.app[*].startTime "uniform(0s, 0.02s)"
config *.nrUe*.app[*].finishTime "uniform(19.9s, 19.92s)"
config network Eastleigh_5GNet
config sim-time-limit 20s
config *.bgCell.*.isNr true
config *.bgCell.*.carrierFrequency 30GHz
config *.bgCell.*.numBands default
config *.bgCell.*.txPower default
config *.bgCell.*.fading_type default
config *.bgCell.*.scenario default
config *.bgCell.*.nodeb_height default
config *.bgCell.*.building_height 7
config *.carrierAggregation.numComponentCarriers default
config *.carrierAggregation.componentCarrier[0].carrierFrequency 30GHz
config *.carrierAggregation.componentCarrier[0].numerologyIndex default
config *.carrierAggregation.componentCarrier[0].numBands default
config **.eNodeBTxPower default
config *.gnb*.txPower default
config *.gnb*.cellularNic.channelModel[*].nodeb_height default
config *.gnb*.cellularNic.channelModel[*].building_height 7
config *.gnb*.*.channelModel[*].antennaGainEnB default
config *.gnb*.*.channelModel[*].antennaGainUe default
config *.gnb*.cellInfo.rbxDl 7
config *.gnb*.cellInfo.rbxUl 7
config **.ueTxPower default
config *.nrUe*.cellularNic.channelModel[*].nodeb_height default
config *.nrUe*.*.channelModel[*].building_height 7
config *.nrUe*.*.channelModel[*].antennaGainEnB default
config *.nrUe*.*.channelModel[*].antennaGainUe default
config *.nrUe*.macCellId 0
config *.nrUe*.masterId 0
config *.nrUe*.nrMacCellId 1
config *.nrUe*.nrMasterId 1
config **.dynamicCellAssociation true
config **.enableHandover true
config **.sctp.nagleEnabled false
config **.sctp.enableHeartbeats false
config **.mobility.constraintAreaMaxX 700m
config **.mobility.constraintAreaMaxY 700m
config **.mobility.constraintAreaMaxZ 0m
config **.mobility.constraintAreaMinX 0m
config **.mobility.constraintAreaMinY 0m
config **.mobility.constraintAreaMinZ 0m
config **.mobility.initFromDisplayString true
config *.gnb0.numX2Apps 3
config *.gnb1.numX2Apps 3
config *.gnb2.numX2Apps 3
config *.gnb3.numX2Apps 3
config *.gnb4.numX2Apps 8
config *.gnb5.numX2Apps 3
config *.gnb6.numX2Apps 3
config *.gnb7.numX2Apps 3
config *.gnb8.numX2Apps 3
config *.gnb*.x2App[*].server.localPort "5000 + ancestorIndex(1)"
config *.gnb0.x2App[0].client.connectAddress "\"gnb1%x2ppp1\""
config *.gnb0.x2App[1].client.connectAddress "\"gnb4%x2ppp0\""
config *.gnb0.x2App[2].client.connectAddress "\"gnb3%x2ppp1\""
config *.gnb1.x2App[0].client.connectAddress "\"gnb0%x2ppp1\""
config *.gnb1.x2App[1].client.connectAddress "\"gnb4%x2ppp1\""
config *.gnb1.x2App[2].client.connectAddress "\"gnb2%x2ppp1\""
config *.gnb2.x2App[0].client.connectAddress "\"gnb1%x2ppp2\""
config *.gnb2.x2App[1].client.connectAddress "\"gnb4%x2ppp2\""
config *.gnb2.x2App[2].client.connectAddress "\"gnb5%x2ppp1\""
config *.gnb3.x2App[0].client.connectAddress "\"gnb0%x2ppp2\""
config *.gnb3.x2App[1].client.connectAddress "\"gnb4%x2ppp3\""
config *.gnb3.x2App[2].client.connectAddress "\"gnb6%x2ppp1\""
config *.gnb4.x2App[0].client.connectAddress "\"gnb0%x2ppp0\""
config *.gnb4.x2App[1].client.connectAddress "\"gnb1%x2ppp0\""
config *.gnb4.x2App[2].client.connectAddress "\"gnb2%x2ppp0\""
config *.gnb4.x2App[3].client.connectAddress "\"gnb3%x2ppp0\""
config *.gnb4.x2App[4].client.connectAddress "\"gnb5%x2ppp0\""
config *.gnb4.x2App[5].client.connectAddress "\"gnb6%x2ppp0\""
config *.gnb4.x2App[6].client.connectAddress "\"gnb7%x2ppp0\""
config *.gnb4.x2App[7].client.connectAddress "\"gnb8%x2ppp0\""
config *.gnb5.x2App[0].client.connectAddress "\"gnb2%x2ppp2\""
config *.gnb5.x2App[1].client.connectAddress "\"gnb4%x2ppp4\""
config *.gnb5.x2App[2].client.connectAddress "\"gnb8%x2ppp1\""
config *.gnb6.x2App[0].client.connectAddress "\"gnb3%x2ppp2\""
config *.gnb6.x2App[1].client.connectAddress "\"gnb4%x2ppp5\""
config *.gnb6.x2App[2].client.connectAddress "\"gnb7%x2ppp1\""
config *.gnb7.x2App[0].client.connectAddress "\"gnb6%x2ppp2\""
config *.gnb7.x2App[1].client.connectAddress "\"gnb4%x2ppp6\""
config *.gnb7.x2App[2].client.connectAddress "\"gnb8%x2ppp2\""
config *.gnb8.x2App[0].client.connectAddress "\"gnb5%x2ppp2\""
config *.gnb8.x2App[1].client.connectAddress "\"gnb4%x2ppp7\""
config *.gnb8.x2App[2].client.connectAddress "\"gnb7%x2ppp2\""
config **.sctp.**.scalar-recording false
config **.sctp.**.vector-recording false
config *.nrUe*.numApps 1
config *.server.numApps 5

vector 0 Eastleigh_5GNet.server.ppp[0].queue queueLength:vector ETV
attr autoWarmupFilter false
attr interpolationmode sample-hold
attr recordingmode vector
attr source "warmup(atomic(constant0(packetPushEnded) + count(packetPushStarted) - count(packetPulled) - count(packetRemoved) - count(packetDropped)))"
attr title "queue length"
attr unit pk
vector 1 Eastleigh_5GNet.server.ppp[0].queue queueBitLength:vector ETV
attr autoWarmupFilter false
attr interpolationmode sample-hold
attr recordingmode vector
attr source "warmup(atomic(constant0(packetPushEnded) + sum(packetLength(packetPushStarted)) - sum(packetLength(packetPulled)) - sum(packetLength(packetRemoved)) - sum(packetLength(packetDropped))))"
attr title "queue bit length"
attr unit b
vector 2 Eastleigh_5GNet.server.ppp[0].ppp transmissionState:vector ETV
attr interpolationmode sample-hold
attr recordingmode vector
attr source transmissionStateChanged
attr title "tx state"
vector 3 Eastleigh_5GNet.server.udp passedUpPk:vector(count) ETV
attr interpolationmode none
attr recordingmode vector(count)
attr source packetSentToUpper
attr title "packets passed up, count"
vector 4 Eastleigh_5GNet.server.udp droppedPkWrongPort:vector(count) ETV
attr interpolationmode none
attr recordingmode vector(count)
attr source packetDropReasonIsNoPortFound(packetDropped)
attr title "packets dropped (wrong port), count"
vector 5 Eastleigh_5GNet.server.udp droppedPkBadChecksum:vector(count) ETV
attr interpolationmode none
attr recordingmode vector(count)
attr source packetDropReasonIsIncorrectlyReceived(packetDropped)
attr title "packets dropped (checksum error), count"
vector 6 Eastleigh_5GNet.router.ppp[0].queue queueLength:vector ETV
attr autoWarmupFilter false
attr interpolationmode sample-hold
attr recordingmode vector
attr source "warmup(atomic(constant0(packetPushEnded) + count(packetPushStarted) - count(packetPulled) - count(packetRemoved) - count(packetDropped)))"
attr title "queue length"
attr unit pk
vector 7 Eastleigh_5GNet.router.ppp[0].queue queueBitLength:vector ETV
attr autoWarmupFilter false
attr interpolationmode sample-hold
attr recordingmode vector
attr source "warmup(atomic(constant0(packetPushEnded) + sum(packetLength(packetPushStarted)) - sum(packetLength(packetPulled)) - sum(packetLength(packetRemoved)) - sum(packetLength(packetDropped))))"
attr title "queue bit length"
attr unit b
vector 8 Eastleigh_5GNet.router.ppp[0].ppp transmissionState:vector ETV
attr interpolationmode sample-hold
attr recordingmode vector
attr source transmissionStateChanged
attr title "tx state"
vector 9 Eastleigh_5GNet.router.ppp[1].queue queueLength:vector ETV
attr autoWarmupFilter false
attr interpolationmode sample-hold
attr recordingmode vector
attr source "warmup(atomic(constant0(packetPushEnded) + count(packetPushStarted) - count(packetPulled) - count(packetRemoved) - count(packetDropped)))"
attr title "queue length"
attr unit pk
vector 10 Eastleigh_5GNet.router.ppp[1].queue queueBitLength:vector ETV
attr autoWarmupFilter false
attr interpolationmode sample-hold
attr recordingmode vector
attr source "warmup(atomic(constant0(packetPushEnded) + sum(packetLength(packetPushStarted)) - sum(packetLength(packetPulled)) - sum(packetLength(packetRemoved)) - sum(packetLength(packetDropped))))"
attr title "queue bit length"
attr unit b
vector 11 Eastleigh_5GNet.router.ppp[1].ppp transmissionState:vector ETV
attr interpolationmode sample-hold
attr recordingmode vector
attr source transmissionStateChanged
attr title "tx state"
vector 12 Eastleigh_5GNet.upf.ppp[0].queue queueLength:vector ETV
attr autoWarmupFilter false
attr interpolationmode sample-hold
attr recordingmode vector
attr source "warmup(atomic(constant0(packetPushEnded) + count(packetPushStarted) - count(packetPulled) - count(packetRemoved) - count(packetDropped)))"
attr title "queue length"
attr unit pk
vector 13 Eastleigh_5GNet.upf.ppp[0].queue queueBitLength:vector ETV
attr autoWarmupFilter false
attr interpolationmode sample-hold
attr recordingmode vector
attr source "warmup(atomic(constant0(packetPushEnded) + sum(packetLength(packetPushStarted)) - sum(packetLength(packetPulled)) - sum(packetLength(packetRemoved)) - sum(packetLength(packetDropped))))"
attr title "queue bit length"
attr unit b
vector 14 Eastleigh_5GNet.upf.ppp[0].ppp transmissionState:vector ETV
attr interpolationmode sample-hold
attr recordingmode vector
attr source transmissionStateChanged
attr title "tx state"
vector 15 Eastleigh_5GNet.upf.ppp[1].queue queueLength:vector ETV
attr autoWarmupFilter false
attr interpolationmode sample-hold
attr recordingmode vector
attr source "warmup(atomic(constant0(packetPushEnded) + count(packetPushStarted) - count(packetPulled) - count(packetRemoved) - count(packetDropped)))"
attr title "queue length"
attr unit pk
vector 16 Eastleigh_5GNet.upf.ppp[1].queue queueBitLength:vector ETV
attr autoWarmupFilter false
attr interpolationmode sample-hold
attr recordingmode vector
attr source "warmup(atomic(constant0(packetPushEnded) + sum(packetLength(packetPushStarted)) - sum(packetLength(packetPulled)) - sum(packetLength(packetRemoved)) - sum(packetLength(packetDropped))))"
attr title "queue bit length"
attr unit b
vector 17 Eastleigh_5GNet.upf.ppp[1].ppp transmissionState:vector ETV
attr interpolationmode sample-hold
attr recordingmode vector
attr source transmissionStateChanged
attr title "tx state"
vector 18 Eastleigh_5GNet.upf.ppp[2].queue queueLength:vector ETV
attr autoWarmupFilter false
attr interpolationmode sample-hold
attr recordingmode vector
attr source "warmup(atomic(constant0(packetPushEnded) + count(packetPushStarted) - count(packetPulled) - count(packetRemoved) - count(packetDropped)))"
attr title "queue length"
attr unit pk
vector 19 Eastleigh_5GNet.upf.ppp[2].queue queueBitLength:vector ETV
attr autoWarmupFilter false
attr interpolationmode sample-hold
attr recordingmode vector
attr source "warmup(atomic(constant0(packetPushEnded) + sum(packetLength(packetPushStarted)) - sum(packetLength(packetPulled)) - sum(packetLength(packetRemoved)) - sum(packetLength(packetDropped))))"
attr title "queue bit length"
attr unit b
vector 20 Eastleigh_5GNet.upf.ppp[2].ppp transmissionState:vector ETV
attr interpolationmode sample-hold
attr recordingmode vector
attr source transmissionStateChanged
attr title "tx state"
vector 21 Eastleigh_5GNet.upf.ppp[3].queue queueLength:vector ETV
attr autoWarmupFilter false
attr interpolationmode sample-hold
attr recordingmode vector
attr source "warmup(atomic(constant0(packetPushEnded) + count(packetPushStarted) - count(packetPulled) - count(packetRemoved) - count(packetDropped)))"
attr title "queue length"
attr unit pk
vector 22 Eastleigh_5GNet.upf.ppp[3].queue queueBitLength:vector ETV
attr autoWarmupFilter false
attr interpolationmode sample-hold
attr recordingmode vector
attr source "warmup(atomic(constant0(packetPushEnded) + sum(packetLength(packetPushStarted)) - sum(packetLength(packetPulled)) - sum(packetLength(packetRemoved)) - sum(packetLength(packetDropped))))"
attr title "queue bit length"
attr unit b
vector 23 Eastleigh_5GNet.upf.ppp[3].ppp transmissionState:vector ETV
attr interpolationmode sample-hold
attr recordingmode vector
attr source transmissionStateChanged
attr title "tx state"
vector 24 Eastleigh_5GNet.upf.ppp[4].queue queueLength:vector ETV
attr autoWarmupFilter false
attr interpolationmode sample-hold
attr recordingmode vector
attr source "warmup(atomic(constant0(packetPushEnded) + count(packetPushStarted) - count(packetPulled) - count(packetRemoved) - count(packetDropped)))"
attr title "queue length"
attr unit pk
vector 25 Eastleigh_5GNet.upf.ppp[4].queue queueBitLength:vector ETV
attr autoWarmupFilter false
attr interpolationmode sample-hold
attr recordingmode vector
attr source "warmup(atomic(constant0(packetPushEnded) + sum(packetLength(packetPushStarted)) - sum(packetLength(packetPulled)) - sum(packetLength(packetRemoved)) - sum(packetLength(packetDropped))))"
attr title "queue bit length"
attr unit b
vector 26 Eastleigh_5GNet.upf.ppp[4].ppp transmissionState:vector ETV
attr interpolationmode sample-hold
attr recordingmode vector
attr source transmissionStateChanged
attr title "tx state"
vector 27 Eastleigh_5GNet.upf.ppp[5].queue queueLength:vector ETV
attr autoWarmupFilter false
attr interpolationmode sample-hold
attr recordingmode vector
attr source "warmup(atomic(constant0(packetPushEnded) + count(packetPushStarted) - count(packetPulled) - count(packetRemoved) - count(packetDropped)))"
attr title "queue length"
attr unit pk
vector 28 Eastleigh_5GNet.upf.ppp[5].queue queueBitLength:vector ETV
attr autoWarmupFilter false
attr interpolationmode sample-hold
attr recordingmode vector
attr source "warmup(atomic(constant0(packetPushEnded) + sum(packetLength(packetPushStarted)) - sum(packetLength(packetPulled)) - sum(packetLength(packetRemoved)) - sum(packetLength(packetDropped))))"
attr title "queue bit length"
attr unit b
vector 29 Eastleigh_5GNet.upf.ppp[5].ppp transmissionState:vector ETV
attr interpolationmode sample-hold
attr recordingmode vector
attr source transmissionStateChanged
attr title "tx state"
vector 30 Eastleigh_5GNet.upf.ppp[6].queue queueLength:vector ETV
attr autoWarmupFilter false
attr interpolationmode sample-hold
attr recordingmode vector
attr source "warmup(atomic(constant0(packetPushEnded) + count(packetPushStarted) - count(packetPulled) - count(packetRemoved) - count(packetDropped)))"
attr title "queue length"
attr unit pk
vector 31 Eastleigh_5GNet.upf.ppp[6].queue queueBitLength:vector ETV
attr autoWarmupFilter false
attr interpolationmode sample-hold
attr recordingmode vector
attr source "warmup(atomic(constant0(packetPushEnded) + sum(packetLength(packetPushStarted)) - sum(packetLength(packetPulled)) - sum(packetLength(packetRemoved)) - sum(packetLength(packetDropped))))"
attr title "queue bit length"
attr unit b
vector 32 Eastleigh_5GNet.upf.ppp[6].ppp transmissionState:vector ETV
attr interpolationmode sample-hold
attr recordingmode vector
attr source transmissionStateChanged
attr title "tx state"
vector 33 Eastleigh_5GNet.upf.ppp[7].queue queueLength:vector ETV
attr autoWarmupFilter false
attr interpolationmode sample-hold
attr recordingmode vector
attr source "warmup(atomic(constant0(packetPushEnded) + count(packetPushStarted) - count(packetPulled) - count(packetRemoved) - count(packetDropped)))"
attr title "queue length"
attr unit pk
vector 34 Eastleigh_5GNet.upf.ppp[7].queue queueBitLength:vector ETV
attr autoWarmupFilter false
attr interpolationmode sample-hold
attr recordingmode vector
attr source "warmup(atomic(constant0(packetPushEnded) + sum(packetLength(packetPushStarted)) - sum(packetLength(packetPulled)) - sum(packetLength(packetRemoved)) - sum(packetLength(packetDropped))))"
attr title "queue bit length"
attr unit b
vector 35 Eastleigh_5GNet.upf.ppp[7].ppp transmissionState:vector ETV
attr interpolationmode sample-hold
attr recordingmode vector
attr source transmissionStateChanged
attr title "tx state"
vector 36 Eastleigh_5GNet.upf.ppp[8].queue queueLength:vector ETV
attr autoWarmupFilter false
attr interpolationmode sample-hold
attr recordingmode vector
attr source "warmup(atomic(constant0(packetPushEnded) + count(packetPushStarted) - count(packetPulled) - count(packetRemoved) - count(packetDropped)))"
attr title "queue length"
attr unit pk
vector 37 Eastleigh_5GNet.upf.ppp[8].queue queueBitLength:vector ETV
attr autoWarmupFilter false
attr interpolationmode sample-hold
attr recordingmode vector
attr source "warmup(atomic(constant0(packetPushEnded) + sum(packetLength(packetPushStarted)) - sum(packetLength(packetPulled)) - sum(packetLength(packetRemoved)) - sum(packetLength(packetDropped))))"
attr title "queue bit length"
attr unit b
vector 38 Eastleigh_5GNet.upf.ppp[8].ppp transmissionState:vector ETV
attr interpolationmode sample-hold
attr recordingmode vector
attr source transmissionStateChanged
attr title "tx state"
vector 39 Eastleigh_5GNet.upf.pppIf.queue queueLength:vector ETV
attr autoWarmupFilter false
attr interpolationmode sample-hold
attr recordingmode vector
attr source "warmup(atomic(constant0(packetPushEnded) + count(packetPushStarted) - count(packetPulled) - count(packetRemoved) - count(packetDropped)))"
attr title "queue length"
attr unit pk
vector 40 Eastleigh_5GNet.upf.pppIf.queue queueBitLength:vector ETV
attr autoWarmupFilter false
attr interpolationmode sample-hold
attr recordingmode vector
attr source "warmup(atomic(constant0(packetPushEnded) + sum(packetLength(packetPushStarted)) - sum(packetLength(packetPulled)) - sum(packetLength(packetRemoved)) - sum(packetLength(packetDropped))))"
attr title "queue bit length"
attr unit b
vector 41 Eastleigh_5GNet.upf.pppIf.ppp transmissionState:vector ETV
attr interpolationmode sample-hold
attr recordingmode vector
attr source transmissionStateChanged
attr title "tx state"
vector 42 Eastleigh_5GNet.upf.udp passedUpPk:vector(count) ETV
attr interpolationmode none
attr recordingmode vector(count)
attr source packetSentToUpper
attr title "packets passed up, count"
vector 43 Eastleigh_5GNet.upf.udp droppedPkWrongPort:vector(count) ETV
attr interpolationmode none
attr recordingmode vector(count)
attr source packetDropReasonIsNoPortFound(packetDropped)
attr title "packets dropped (wrong port), count"
vector 44 Eastleigh_5GNet.upf.udp droppedPkBadChecksum:vector(count) ETV
attr interpolationmode none
attr recordingmode vector(count)
attr source packetDropReasonIsIncorrectlyReceived(packetDropped)
attr title "packets dropped (checksum error), count"
vector 45 Eastleigh_5GNet.gnb0.pppIf.queue queueLength:vector ETV
attr autoWarmupFilter false
attr interpolationmode sample-hold
attr recordingmode vector
attr source "warmup(atomic(constant0(packetPushEnded) + count(packetPushStarted) - count(packetPulled) - count(packetRemoved) - count(packetDropped)))"
attr title "queue length"
attr unit pk
vector 46 Eastleigh_5GNet.gnb0.pppIf.queue queueBitLength:vector ETV
attr autoWarmupFilter false
attr interpolationmode sample-hold
attr recordingmode vector
attr source "warmup(atomic(constant0(packetPushEnded) + sum(packetLength(packetPushStarted)) - sum(packetLength(packetPulled)) - sum(packetLength(packetRemoved)) - sum(packetLength(packetDropped))))"
attr title "queue bit length"
attr unit b
vector 47 Eastleigh_5GNet.gnb0.pppIf.ppp transmissionState:vector ETV
attr interpolationmode sample-hold
attr recordingmode vector
attr source transmissionStateChanged
attr title "tx state"
vector 48 Eastleigh_5GNet.gnb0.x2ppp[0].queue queueLength:vector ETV
attr autoWarmupFilter false
attr interpolationmode sample-hold
attr recordingmode vector
attr source "warmup(atomic(constant0(packetPushEnded) + count(packetPushStarted) - count(packetPulled) - count(packetRemoved) - count(packetDropped)))"
attr title "queue length"
attr unit pk
vector 49 Eastleigh_5GNet.gnb0.x2ppp[0].queue queueBitLength:vector ETV
attr autoWarmupFilter false
attr interpolationmode sample-hold
attr recordingmode vector
attr source "warmup(atomic(constant0(packetPushEnded) + sum(packetLength(packetPushStarted)) - sum(packetLength(packetPulled)) - sum(packetLength(packetRemoved)) - sum(packetLength(packetDropped))))"
attr title "queue bit length"
attr unit b
vector 50 Eastleigh_5GNet.gnb0.x2ppp[0].ppp transmissionState:vector ETV
attr interpolationmode sample-hold
attr recordingmode vector
attr source transmissionStateChanged
attr title "tx state"
vector 51 Eastleigh_5GNet.gnb0.x2ppp[1].queue queueLength:vector ETV
attr autoWarmupFilter false
attr interpolationmode sample-hold
attr recordingmode vector
attr source "warmup(atomic(constant0(packetPushEnded) + count(packetPushStarted) - count(packetPulled) - count(packetRemoved) - count(packetDropped)))"
attr title "queue length"
attr unit pk
vector 52 Eastleigh_5GNet.gnb0.x2ppp[1].queue queueBitLength:vector ETV
attr autoWarmupFilter false
attr interpolationmode sample-hold
attr recordingmode vector
attr source "warmup(atomic(constant0(packetPushEnded) + sum(packetLength(packetPushStarted)) - sum(packetLength(packetPulled)) - sum(packetLength(packetRemoved)) - sum(packetLength(packetDropped))))"
attr title "queue bit length"
attr unit b
vector 53 Eastleigh_5GNet.gnb0.x2ppp[1].ppp transmissionState:vector ETV
attr interpolationmode sample-hold
attr recordingmode vector
attr source transmissionStateChanged
attr title "tx state"
vector 54 Eastleigh_5GNet.gnb0.x2ppp[2].queue queueLength:vector ETV
attr autoWarmupFilter false
attr interpolationmode sample-hold
attr recordingmode vector
attr source "warmup(atomic(constant0(packetPushEnded) + count(packetPushStarted) - count(packetPulled) - count(packetRemoved) - count(packetDropped)))"
attr title "queue length"
attr unit pk
vector 55 Eastleigh_5GNet.gnb0.x2ppp[2].queue queueBitLength:vector ETV
attr autoWarmupFilter false
attr interpolationmode sample-hold
attr recordingmode vector
attr source "warmup(atomic(constant0(packetPushEnded) + sum(packetLength(packetPushStarted)) - sum(packetLength(packetPulled)) - sum(packetLength(packetRemoved)) - sum(packetLength(packetDropped))))"
attr title "queue bit length"
attr unit b
vector 56 Eastleigh_5GNet.gnb0.x2ppp[2].ppp transmissionState:vector ETV
attr interpolationmode sample-hold
attr recordingmode vector
attr source transmissionStateChanged
attr title "tx state"
vector 57 Eastleigh_5GNet.gnb0.pppMEHostIf.queue queueLength:vector ETV
attr autoWarmupFilter false
attr interpolationmode sample-hold
attr recordingmode vector
attr source "warmup(atomic(constant0(packetPushEnded) + count(packetPushStarted) - count(packetPulled) - count(packetRemoved) - count(packetDropped)))"
attr title "queue length"
attr unit pk
vector 58 Eastleigh_5GNet.gnb0.pppMEHostIf.queue queueBitLength:vector ETV
attr autoWarmupFilter false
attr interpolationmode sample-hold
attr recordingmode vector
attr source "warmup(atomic(constant0(packetPushEnded) + sum(packetLength(packetPushStarted)) - sum(packetLength(packetPulled)) - sum(packetLength(packetRemoved)) - sum(packetLength(packetDropped))))"
attr title "queue bit length"
attr unit b
vector 59 Eastleigh_5GNet.gnb0.pppMEHostIf.ppp transmissionState:vector ETV
attr interpolationmode sample-hold
attr recordingmode vector
attr source transmissionStateChanged
attr title "tx state"
vector 60 Eastleigh_5GNet.gnb0.udp passedUpPk:vector(count) ETV
attr interpolationmode none
attr recordingmode vector(count)
attr source packetSentToUpper
attr title "packets passed up, count"
vector 61 Eastleigh_5GNet.gnb0.udp droppedPkWrongPort:vector(count) ETV
attr interpolationmode none
attr recordingmode vector(count)
attr source packetDropReasonIsNoPortFound(packetDropped)
attr title "packets dropped (wrong port), count"
vector 62 Eastleigh_5GNet.gnb0.udp droppedPkBadChecksum:vector(count) ETV
attr interpolationmode none
attr recordingmode vector(count)
attr source packetDropReasonIsIncorrectlyReceived(packetDropped)
attr title "packets dropped (checksum error), count"
vector 63 Eastleigh_5GNet.gnb1.pppIf.queue queueLength:vector ETV
attr autoWarmupFilter false
attr interpolationmode sample-hold
attr recordingmode vector
attr source "warmup(atomic(constant0(packetPushEnded) + count(packetPushStarted) - count(packetPulled) - count(packetRemoved) - count(packetDropped)))"
attr title "queue length"
attr unit pk
vector 64 Eastleigh_5GNet.gnb1.pppIf.queue queueBitLength:vector ETV
attr autoWarmupFilter false
attr interpolationmode sample-hold
attr recordingmode vector
attr source "warmup(atomic(constant0(packetPushEnded) + sum(packetLength(packetPushStarted)) - sum(packetLength(packetPulled)) - sum(packetLength(packetRemoved)) - sum(packetLength(packetDropped))))"
attr title "queue bit length"
attr unit b
vector 65 Eastleigh_5GNet.gnb1.pppIf.ppp transmissionState:vector ETV
attr interpolationmode sample-hold
attr recordingmode vector
attr source transmissionStateChanged
attr title "tx state"
vector 66 Eastleigh_5GNet.gnb1.x2ppp[0].queue queueLength:vector ETV
attr autoWarmupFilter false
attr interpolationmode sample-hold
attr recordingmode vector
attr source "warmup(atomic(constant0(packetPushEnded) + count(packetPushStarted) - count(packetPulled) - count(packetRemoved) - count(packetDropped)))"
attr title "queue length"
attr unit pk
vector 67 Eastleigh_5GNet.gnb1.x2ppp[0].queue queueBitLength:vector ETV
attr autoWarmupFilter false
attr interpolationmode sample-hold
attr recordingmode vector
attr source "warmup(atomic(constant0(packetPushEnded) + sum(packetLength(packetPushStarted)) - sum(packetLength(packetPulled)) - sum(packetLength(packetRemoved)) - sum(packetLength(packetDropped))))"
attr title "queue bit length"
attr unit b
vector 68 Eastleigh_5GNet.gnb1.x2ppp[0].ppp transmissionState:vector ETV
attr interpolationmode sample-hold
attr recordingmode vector
attr source transmissionStateChanged
attr title "tx state"
vector 69 Eastleigh_5GNet.gnb1.x2ppp[1].queue queueLength:vector ETV
attr autoWarmupFilter false
attr interpolationmode sample-hold
attr recordingmode vector
attr source "warmup(atomic(constant0(packetPushEnded) + count(packetPushStarted) - count(packetPulled) - count(packetRemoved) - count(packetDropped)))"
attr title "queue length"
attr unit pk
vector 70 Eastleigh_5GNet.gnb1.x2ppp[1].queue queueBitLength:vector ETV
attr autoWarmupFilter false
attr interpolationmode sample-hold
attr recordingmode vector
attr source "warmup(atomic(constant0(packetPushEnded) + sum(packetLength(packetPushStarted)) - sum(packetLength(packetPulled)) - sum(packetLength(packetRemoved)) - sum(packetLength(packetDropped))))"
attr title "queue bit length"
attr unit b
vector 71 Eastleigh_5GNet.gnb1.x2ppp[1].ppp transmissionState:vector ETV
attr interpolationmode sample-hold
attr recordingmode vector
attr source transmissionStateChanged
attr title "tx state"
vector 72 Eastleigh_5GNet.gnb1.x2ppp[2].queue queueLength:vector ETV
attr autoWarmupFilter false
attr interpolationmode sample-hold
attr recordingmode vector
attr source "warmup(atomic(constant0(packetPushEnded) + count(packetPushStarted) - count(packetPulled) - count(packetRemoved) - count(packetDropped)))"
attr title "queue length"
attr unit pk
vector 73 Eastleigh_5GNet.gnb1.x2ppp[2].queue queueBitLength:vector ETV
attr autoWarmupFilter false
attr interpolationmode sample-hold
attr recordingmode vector
attr source "warmup(atomic(constant0(packetPushEnded) + sum(packetLength(packetPushStarted)) - sum(packetLength(packetPulled)) - sum(packetLength(packetRemoved)) - sum(packetLength(packetDropped))))"
attr title "queue bit length"
attr unit b
vector 74 Eastleigh_5GNet.gnb1.x2ppp[2].ppp transmissionState:vector ETV
attr interpolationmode sample-hold
attr recordingmode vector
attr source transmissionStateChanged
attr title "tx state"
vector 75 Eastleigh_5GNet.gnb1.x2ppp[3].queue queueLength:vector ETV
attr autoWarmupFilter false
attr interpolationmode sample-hold
attr recordingmode vector
attr source "warmup(atomic(constant0(packetPushEnded) + count(packetPushStarted) - count(packetPulled) - count(packetRemoved) - count(packetDropped)))"
attr title "queue length"
attr unit pk
vector 76 Eastleigh_5GNet.gnb1.x2ppp[3].queue queueBitLength:vector ETV
attr autoWarmupFilter false
attr interpolationmode sample-hold
attr recordingmode vector
attr source "warmup(atomic(constant0(packetPushEnded) + sum(packetLength(packetPushStarted)) - sum(packetLength(packetPulled)) - sum(packetLength(packetRemoved)) - sum(packetLength(packetDropped))))"
attr title "queue bit length"
attr unit b
vector 77 Eastleigh_5GNet.gnb1.x2ppp[3].ppp transmissionState:vector ETV
attr interpolationmode sample-hold
attr recordingmode vector
attr source transmissionStateChanged
attr title "tx state"
vector 78 Eastleigh_5GNet.gnb1.x2ppp[4].queue queueLength:vector ETV
attr autoWarmupFilter false
attr interpolationmode sample-hold
attr recordingmode vector
attr source "warmup(atomic(constant0(packetPushEnded) + count(packetPushStarted) - count(packetPulled) - count(packetRemoved) - count(packetDropped)))"
attr title "queue length"
attr unit pk
vector 79 Eastleigh_5GNet.gnb1.x2ppp[4].queue queueBitLength:vector ETV
attr autoWarmupFilter false
attr interpolationmode sample-hold
attr recordingmode vector
attr source "warmup(atomic(constant0(packetPushEnded) + sum(packetLength(packetPushStarted)) - sum(packetLength(packetPulled)) - sum(packetLength(packetRemoved)) - sum(packetLength(packetDropped))))"
attr title "queue bit length"
attr unit b
vector 80 Eastleigh_5GNet.gnb1.x2ppp[4].ppp transmissionState:vector ETV
attr interpolationmode sample-hold
attr recordingmode vector
attr source transmissionStateChanged
attr title "tx state"
vector 81 Eastleigh_5GNet.gnb1.pppMEHostIf.queue queueLength:vector ETV
attr autoWarmupFilter false
attr interpolationmode sample-hold
attr recordingmode vector
attr source "warmup(atomic(constant0(packetPushEnded) + count(packetPushStarted) - count(packetPulled) - count(packetRemoved) - count(packetDropped)))"
attr title "queue length"
attr unit pk
vector 82 Eastleigh_5GNet.gnb1.pppMEHostIf.queue queueBitLength:vector ETV
attr autoWarmupFilter false
attr interpolationmode sample-hold
attr recordingmode vector
attr source "warmup(atomic(constant0(packetPushEnded) + sum(packetLength(packetPushStarted)) - sum(packetLength(packetPulled)) - sum(packetLength(packetRemoved)) - sum(packetLength(packetDropped))))"
attr title "queue bit length"
attr unit b
vector 83 Eastleigh_5GNet.gnb1.pppMEHostIf.ppp transmissionState:vector ETV
attr interpolationmode sample-hold
attr recordingmode vector
attr source transmissionStateChanged
attr title "tx state"
vector 84 Eastleigh_5GNet.gnb1.udp passedUpPk:vector(count) ETV
attr interpolationmode none
attr recordingmode vector(count)
attr source packetSentToUpper
attr title "packets passed up, count"
vector 85 Eastleigh_5GNet.gnb1.udp droppedPkWrongPort:vector(count) ETV
attr interpolationmode none
attr recordingmode vector(count)
attr source packetDropReasonIsNoPortFound(packetDropped)
attr title "packets dropped (wrong port), count"
vector 86 Eastleigh_5GNet.gnb1.udp droppedPkBadChecksum:vector(count) ETV
attr interpolationmode none
attr recordingmode vector(count)
attr source packetDropReasonIsIncorrectlyReceived(packetDropped)
attr title "packets dropped (checksum error), count"
vector 87 Eastleigh_5GNet.gnb2.pppIf.queue queueLength:vector ETV
attr autoWarmupFilter false
attr interpolationmode sample-hold
attr recordingmode vector
attr source "warmup(atomic(constant0(packetPushEnded) + count(packetPushStarted) - count(packetPulled) - count(packetRemoved) - count(packetDropped)))"
attr title "queue length"
attr unit pk
vector 88 Eastleigh_5GNet.gnb2.pppIf.queue queueBitLength:vector ETV
attr autoWarmupFilter false
attr interpolationmode sample-hold
attr recordingmode vector
attr source "warmup(atomic(constant0(packetPushEnded) + sum(packetLength(packetPushStarted)) - sum(packetLength(packetPulled)) - sum(packetLength(packetRemoved)) - sum(packetLength(packetDropped))))"
attr title "queue bit length"
attr unit b
vector 89 Eastleigh_5GNet.gnb2.pppIf.ppp transmissionState:vector ETV
attr interpolationmode sample-hold
attr recordingmode vector
attr source transmissionStateChanged
attr title "tx state"
vector 90 Eastleigh_5GNet.gnb2.x2ppp[0].queue queueLength:vector ETV
attr autoWarmupFilter false
attr interpolationmode sample-hold
attr recordingmode vector
attr source "warmup(atomic(constant0(packetPushEnded) + count(packetPushStarted) - count(packetPulled) - count(packetRemoved) - count(packetDropped)))"
attr title "queue length"
attr unit pk
vector 91 Eastleigh_5GNet.gnb2.x2ppp[0].queue queueBitLength:vector ETV
attr autoWarmupFilter false
attr interpolationmode sample-hold
attr recordingmode vector
attr source "warmup(atomic(constant0(packetPushEnded) + sum(packetLength(packetPushStarted)) - sum(packetLength(packetPulled)) - sum(packetLength(packetRemoved)) - sum(packetLength(packetDropped))))"
attr title "queue bit length"
attr unit b
vector 92 Eastleigh_5GNet.gnb2.x2ppp[0].ppp transmissionState:vector ETV
attr interpolationmode sample-hold
attr recordingmode vector
attr source transmissionStateChanged
attr title "tx state"
vector 93 Eastleigh_5GNet.gnb2.x2ppp[1].queue queueLength:vector ETV
attr autoWarmupFilter false
attr interpolationmode sample-hold
attr recordingmode vector
attr source "warmup(atomic(constant0(packetPushEnded) + count(packetPushStarted) - count(packetPulled) - count(packetRemoved) - count(packetDropped)))"
attr title "queue length"
attr unit pk
vector 94 Eastleigh_5GNet.gnb2.x2ppp[1].queue queueBitLength:vector ETV
attr autoWarmupFilter false
attr interpolationmode sample-hold
attr recordingmode vector
attr source "warmup(atomic(constant0(packetPushEnded) + sum(packetLength(packetPushStarted)) - sum(packetLength(packetPulled)) - sum(packetLength(packetRemoved)) - sum(packetLength(packetDropped))))"
attr title "queue bit length"
attr unit b
vector 95 Eastleigh_5GNet.gnb2.x2ppp[1].ppp transmissionState:vector ETV
attr interpolationmode sample-hold
attr recordingmode vector
attr source transmissionStateChanged
attr title "tx state"
vector 96 Eastleigh_5GNet.gnb2.x2ppp[2].queue queueLength:vector ETV
attr autoWarmupFilter false
attr interpolationmode sample-hold
attr recordingmode vector
attr source "warmup(atomic(constant0(packetPushEnded) + count(packetPushStarted) - count(packetPulled) - count(packetRemoved) - count(packetDropped)))"
attr title "queue length"
attr unit pk
vector 97 Eastleigh_5GNet.gnb2.x2ppp[2].queue queueBitLength:vector ETV
attr autoWarmupFilter false
attr interpolationmode sample-hold
attr recordingmode vector
attr source "warmup(atomic(constant0(packetPushEnded) + sum(packetLength(packetPushStarted)) - sum(packetLength(packetPulled)) - sum(packetLength(packetRemoved)) - sum(packetLength(packetDropped))))"
attr title "queue bit length"
attr unit b
vector 98 Eastleigh_5GNet.gnb2.x2ppp[2].ppp transmissionState:vector ETV
attr interpolationmode sample-hold
attr recordingmode vector
attr source transmissionStateChanged
attr title "tx state"
vector 99 Eastleigh_5GNet.gnb2.pppMEHostIf.queue queueLength:vector ETV
attr autoWarmupFilter false
attr interpolationmode sample-hold
attr recordingmode vector
attr source "warmup(atomic(constant0(packetPushEnded) + count(packetPushStarted) - count(packetPulled) - count(packetRemoved) - count(packetDropped)))"
attr title "queue length"
attr unit pk
vector 100 Eastleigh_5GNet.gnb2.pppMEHostIf.queue queueBitLength:vector ETV
attr autoWarmupFilter false
attr interpolationmode sample-hold
attr recordingmode vector
attr source "warmup(atomic(constant0(packetPushEnded) + sum(packetLength(packetPushStarted)) - sum(packetLength(packetPulled)) - sum(packetLength(packetRemoved)) - sum(packetLength(packetDropped))))"
attr title "queue bit length"
attr unit b
vector 101 Eastleigh_5GNet.gnb2.pppMEHostIf.ppp transmissionState:vector ETV
attr interpolationmode sample-hold
attr recordingmode vector
attr source transmissionStateChanged
attr title "tx state"
vector 102 Eastleigh_5GNet.gnb2.udp passedUpPk:vector(count) ETV
attr interpolationmode none
attr recordingmode vector(count)
attr source packetSentToUpper
attr title "packets passed up, count"
vector 103 Eastleigh_5GNet.gnb2.udp droppedPkWrongPort:vector(count) ETV
attr interpolationmode none
attr recordingmode vector(count)
attr source packetDropReasonIsNoPortFound(packetDropped)
attr title "packets dropped (wrong port), count"
vector 104 Eastleigh_5GNet.gnb2.udp droppedPkBadChecksum:vector(count) ETV
attr interpolationmode none
attr recordingmode vector(count)
attr source packetDropReasonIsIncorrectlyReceived(packetDropped)
attr title "packets dropped (checksum error), count"
vector 105 Eastleigh_5GNet.gnb3.pppIf.queue queueLength:vector ETV
attr autoWarmupFilter false
attr interpolationmode sample-hold
attr recordingmode vector
attr source "warmup(atomic(constant0(packetPushEnded) + count(packetPushStarted) - count(packetPulled) - count(packetRemoved) - count(packetDropped)))"
attr title "queue length"
attr unit pk
vector 106 Eastleigh_5GNet.gnb3.pppIf.queue queueBitLength:vector ETV
attr autoWarmupFilter false
attr interpolationmode sample-hold
attr recordingmode vector
attr source "warmup(atomic(constant0(packetPushEnded) + sum(packetLength(packetPushStarted)) - sum(packetLength(packetPulled)) - sum(packetLength(packetRemoved)) - sum(packetLength(packetDropped))))"
attr title "queue bit length"
attr unit b
vector 107 Eastleigh_5GNet.gnb3.pppIf.ppp transmissionState:vector ETV
attr interpolationmode sample-hold
attr recordingmode vector
attr source transmissionStateChanged
attr title "tx state"
vector 108 Eastleigh_5GNet.gnb3.x2ppp[0].queue queueLength:vector ETV
attr autoWarmupFilter false
attr interpolationmode sample-hold
attr recordingmode vector
attr source "warmup(atomic(constant0(packetPushEnded) + count(packetPushStarted) - count(packetPulled) - count(packetRemoved) - count(packetDropped)))"
attr title "queue length"
attr unit pk
vector 109 Eastleigh_5GNet.gnb3.x2ppp[0].queue queueBitLength:vector ETV
attr autoWarmupFilter false
attr interpolationmode sample-hold
attr recordingmode vector
attr source "warmup(atomic(constant0(packetPushEnded) + sum(packetLength(packetPushStarted)) - sum(packetLength(packetPulled)) - sum(packetLength(packetRemoved)) - sum(packetLength(packetDropped))))"
attr title "queue bit length"
attr unit b
vector 110 Eastleigh_5GNet.gnb3.x2ppp[0].ppp transmissionState:vector ETV
attr interpolationmode sample-hold
attr recordingmode vector
attr source transmissionStateChanged
attr title "tx state"
vector 111 Eastleigh_5GNet.gnb3.x2ppp[1].queue queueLength:vector ETV
attr autoWarmupFilter false
attr interpolationmode sample-hold
attr recordingmode vector
attr source "warmup(atomic(constant0(packetPushEnded) + count(packetPushStarted) - count(packetPulled) - count(packetRemoved) - count(packetDropped)))"
attr title "queue length"
attr unit pk
vector 112 Eastleigh_5GNet.gnb3.x2ppp[1].queue queueBitLength:vector ETV
attr autoWarmupFilter false
attr interpolationmode sample-hold
attr recordingmode vector
attr source "warmup(atomic(constant0(packetPushEnded) + sum(packetLength(packetPushStarted)) - sum(packetLength(packetPulled)) - sum(packetLength(packetRemoved)) - sum(packetLength(packetDropped))))"
attr title "queue bit length"
attr unit b
vector 113 Eastleigh_5GNet.gnb3.x2ppp[1].ppp transmissionState:vector ETV
attr interpolationmode sample-hold
attr recordingmode vector
attr source transmissionStateChanged
attr title "tx state"
vector 114 Eastleigh_5GNet.gnb3.x2ppp[2].queue queueLength:vector ETV
attr autoWarmupFilter false
attr interpolationmode sample-hold
attr recordingmode vector
attr source "warmup(atomic(constant0(packetPushEnded) + count(packetPushStarted) - count(packetPulled) - count(packetRemoved) - count(packetDropped)))"
attr title "queue length"
attr unit pk
vector 115 Eastleigh_5GNet.gnb3.x2ppp[2].queue queueBitLength:vector ETV
attr autoWarmupFilter false
attr interpolationmode sample-hold
attr recordingmode vector
attr source "warmup(atomic(constant0(packetPushEnded) + sum(packetLength(packetPushStarted)) - sum(packetLength(packetPulled)) - sum(packetLength(packetRemoved)) - sum(packetLength(packetDropped))))"
attr title "queue bit length"
attr unit b
vector 116 Eastleigh_5GNet.gnb3.x2ppp[2].ppp transmissionState:vector ETV
attr interpolationmode sample-hold
attr recordingmode vector
attr source transmissionStateChanged
attr title "tx state"
vector 117 Eastleigh_5GNet.gnb3.x2ppp[3].queue queueLength:vector ETV
attr autoWarmupFilter false
attr interpolationmode sample-hold
attr recordingmode vector
attr source "warmup(atomic(constant0(packetPushEnded) + count(packetPushStarted) - count(packetPulled) - count(packetRemoved) - count(packetDropped)))"
attr title "queue length"
attr unit pk
vector 118 Eastleigh_5GNet.gnb3.x2ppp[3].queue queueBitLength:vector ETV
attr autoWarmupFilter false
attr interpolationmode sample-hold
attr recordingmode vector
attr source "warmup(atomic(constant0(packetPushEnded) + sum(packetLength(packetPushStarted)) - sum(packetLength(packetPulled)) - sum(packetLength(packetRemoved)) - sum(packetLength(packetDropped))))"
attr title "queue bit length"
attr unit b
vector 119 Eastleigh_5GNet.gnb3.x2ppp[3].ppp transmissionState:vector ETV
attr interpolationmode sample-hold
attr recordingmode vector
attr source transmissionStateChanged
attr title "tx state"
vector 120 Eastleigh_5GNet.gnb3.x2ppp[4].queue queueLength:vector ETV
attr autoWarmupFilter false
attr interpolationmode sample-hold
attr recordingmode vector
attr source "warmup(atomic(constant0(packetPushEnded) + count(packetPushStarted) - count(packetPulled) - count(packetRemoved) - count(packetDropped)))"
attr title "queue length"
attr unit pk
vector 121 Eastleigh_5GNet.gnb3.x2ppp[4].queue queueBitLength:vector ETV
attr autoWarmupFilter false
attr interpolationmode sample-hold
attr recordingmode vector
attr source "warmup(atomic(constant0(packetPushEnded) + sum(packetLength(packetPushStarted)) - sum(packetLength(packetPulled)) - sum(packetLength(packetRemoved)) - sum(packetLength(packetDropped))))"
attr title "queue bit length"
attr unit b
vector 122 Eastleigh_5GNet.gnb3.x2ppp[4].ppp transmissionState:vector ETV
attr interpolationmode sample-hold
attr recordingmode vector
attr source transmissionStateChanged
attr title "tx state"
vector 123 Eastleigh_5GNet.gnb3.pppMEHostIf.queue queueLength:vector ETV
attr autoWarmupFilter false
attr interpolationmode sample-hold
attr recordingmode vector
attr source "warmup(atomic(constant0(packetPushEnded) + count(packetPushStarted) - count(packetPulled) - count(packetRemoved) - count(packetDropped)))"
attr title "queue length"
attr unit pk
vector 124 Eastleigh_5GNet.gnb3.pppMEHostIf.queue queueBitLength:vector ETV
attr autoWarmupFilter false
attr interpolationmode sample-hold
attr recordingmode vector
attr source "warmup(atomic(constant0(packetPushEnded) + sum(packetLength(packetPushStarted)) - sum(packetLength(packetPulled)) - sum(packetLength(packetRemoved)) - sum(packetLength(packetDropped))))"
attr title "queue bit length"
attr unit b
vector 125 Eastleigh_5GNet.gnb3.pppMEHostIf.ppp transmissionState:vector ETV
attr interpolationmode sample-hold
attr recordingmode vector
attr source transmissionStateChanged
attr title "tx state"
vector 126 Eastleigh_5GNet.gnb3.udp passedUpPk:vector(count) ETV
attr interpolationmode none
attr recordingmode vector(count)
attr source packetSentToUpper
attr title "packets passed up, count"
vector 127 Eastleigh_5GNet.gnb3.udp droppedPkWrongPort:vector(count) ETV
attr interpolationmode none
attr recordingmode vector(count)
attr source packetDropReasonIsNoPortFound(packetDropped)
attr title "packets dropped (wrong port), count"
vector 128 Eastleigh_5GNet.gnb3.udp droppedPkBadChecksum:vector(count) ETV
attr interpolationmode none
attr recordingmode vector(count)
attr source packetDropReasonIsIncorrectlyReceived(packetDropped)
attr title "packets dropped (checksum error), count"
vector 129 Eastleigh_5GNet.gnb4.pppIf.queue queueLength:vector ETV
attr autoWarmupFilter false
attr interpolationmode sample-hold
attr recordingmode vector
attr source "warmup(atomic(constant0(packetPushEnded) + count(packetPushStarted) - count(packetPulled) - count(packetRemoved) - count(packetDropped)))"
attr title "queue length"
attr unit pk
vector 130 Eastleigh_5GNet.gnb4.pppIf.queue queueBitLength:vector ETV
attr autoWarmupFilter false
attr interpolationmode sample-hold
attr recordingmode vector
attr source "warmup(atomic(constant0(packetPushEnded) + sum(packetLength(packetPushStarted)) - sum(packetLength(packetPulled)) - sum(packetLength(packetRemoved)) - sum(packetLength(packetDropped))))"
attr title "queue bit length"
attr unit b
vector 131 Eastleigh_5GNet.gnb4.pppIf.ppp transmissionState:vector ETV
attr interpolationmode sample-hold
attr recordingmode vector
attr source transmissionStateChanged
attr title "tx state"
vector 132 Eastleigh_5GNet.gnb4.x2ppp[0].queue queueLength:vector ETV
attr autoWarmupFilter false
attr interpolationmode sample-hold
attr recordingmode vector
attr source "warmup(atomic(constant0(packetPushEnded) + count(packetPushStarted) - count(packetPulled) - count(packetRemoved) - count(packetDropped)))"
attr title "queue length"
attr unit pk
vector 133 Eastleigh_5GNet.gnb4.x2ppp[0].queue queueBitLength:vector ETV
attr autoWarmupFilter false
attr interpolationmode sample-hold
attr recordingmode vector
attr source "warmup(atomic(constant0(packetPushEnded) + sum(packetLength(packetPushStarted)) - sum(packetLength(packetPulled)) - sum(packetLength(packetRemoved)) - sum(packetLength(packetDropped))))"
attr title "queue bit length"
attr unit b
vector 134 Eastleigh_5GNet.gnb4.x2ppp[0].ppp transmissionState:vector ETV
attr interpolationmode sample-hold
attr recordingmode vector
attr source transmissionStateChanged
attr title "tx state"
vector 135 Eastleigh_5GNet.gnb4.x2ppp[1].queue queueLength:vector ETV
attr autoWarmupFilter false
attr interpolationmode sample-hold
attr recordingmode vector
attr source "warmup(atomic(constant0(packetPushEnded) + count(packetPushStarted) - count(packetPulled) - count(packetRemoved) - count(packetDropped)))"
attr title "queue length"
attr unit pk
vector 136 Eastleigh_5GNet.gnb4.x2ppp[1].queue queueBitLength:vector ETV
attr autoWarmupFilter false
attr interpolationmode sample-hold
attr recordingmode vector
attr source "warmup(atomic(constant0(packetPushEnded) + sum(packetLength(packetPushStarted)) - sum(packetLength(packetPulled)) - sum(packetLength(packetRemoved)) - sum(packetLength(packetDropped))))"
attr title "queue bit length"
attr unit b
vector 137 Eastleigh_5GNet.gnb4.x2ppp[1].ppp transmissionState:vector ETV
attr interpolationmode sample-hold
attr recordingmode vector
attr source transmissionStateChanged
attr title "tx state"
vector 138 Eastleigh_5GNet.gnb4.x2ppp[2].queue queueLength:vector ETV
attr autoWarmupFilter false
attr interpolationmode sample-hold
attr recordingmode vector
attr source "warmup(atomic(constant0(packetPushEnded) + count(packetPushStarted) - count(packetPulled) - count(packetRemoved) - count(packetDropped)))"
attr title "queue length"
attr unit pk
vector 139 Eastleigh_5GNet.gnb4.x2ppp[2].queue queueBitLength:vector ETV
attr autoWarmupFilter false
attr interpolationmode sample-hold
attr recordingmode vector
attr source "warmup(atomic(constant0(packetPushEnded) + sum(packetLength(packetPushStarted)) - sum(packetLength(packetPulled)) - sum(packetLength(packetRemoved)) - sum(packetLength(packetDropped))))"
attr title "queue bit length"
attr unit b
vector 140 Eastleigh_5GNet.gnb4.x2ppp[2].ppp transmissionState:vector ETV
attr interpolationmode sample-hold
attr recordingmode vector
attr source transmissionStateChanged
attr title "tx state"
vector 141 Eastleigh_5GNet.gnb4.x2ppp[3].queue queueLength:vector ETV
attr autoWarmupFilter false
attr interpolationmode sample-hold
attr recordingmode vector
attr source "warmup(atomic(constant0(packetPushEnded) + count(packetPushStarted) - count(packetPulled) - count(packetRemoved) - count(packetDropped)))"
attr title "queue length"
attr unit pk
vector 142 Eastleigh_5GNet.gnb4.x2ppp[3].queue queueBitLength:vector ETV
attr autoWarmupFilter false
attr interpolationmode sample-hold
attr recordingmode vector
attr source "warmup(atomic(constant0(packetPushEnded) + sum(packetLength(packetPushStarted)) - sum(packetLength(packetPulled)) - sum(packetLength(packetRemoved)) - sum(packetLength(packetDropped))))"
attr title "queue bit length"
attr unit b
vector 143 Eastleigh_5GNet.gnb4.x2ppp[3].ppp transmissionState:vector ETV
attr interpolationmode sample-hold
attr recordingmode vector
attr source transmissionStateChanged
attr title "tx state"
vector 144 Eastleigh_5GNet.gnb4.x2ppp[4].queue queueLength:vector ETV
attr autoWarmupFilter false
attr interpolationmode sample-hold
attr recordingmode vector
attr source "warmup(atomic(constant0(packetPushEnded) + count(packetPushStarted) - count(packetPulled) - count(packetRemoved) - count(packetDropped)))"
attr title "queue length"
attr unit pk
vector 145 Eastleigh_5GNet.gnb4.x2ppp[4].queue queueBitLength:vector ETV
attr autoWarmupFilter false
attr interpolationmode sample-hold
attr recordingmode vector
attr source "warmup(atomic(constant0(packetPushEnded) + sum(packetLength(packetPushStarted)) - sum(packetLength(packetPulled)) - sum(packetLength(packetRemoved)) - sum(packetLength(packetDropped))))"
attr title "queue bit length"
attr unit b
vector 146 Eastleigh_5GNet.gnb4.x2ppp[4].ppp transmissionState:vector ETV
attr interpolationmode sample-hold
attr recordingmode vector
attr source transmissionStateChanged
attr title "tx state"
vector 147 Eastleigh_5GNet.gnb4.x2ppp[5].queue queueLength:vector ETV
attr autoWarmupFilter false
attr interpolationmode sample-hold
attr recordingmode vector
attr source "warmup(atomic(constant0(packetPushEnded) + count(packetPushStarted) - count(packetPulled) - count(packetRemoved) - count(packetDropped)))"
attr title "queue length"
attr unit pk
vector 148 Eastleigh_5GNet.gnb4.x2ppp[5].queue queueBitLength:vector ETV
attr autoWarmupFilter false
attr interpolationmode sample-hold
attr recordingmode vector
attr source "warmup(atomic(constant0(packetPushEnded) + sum(packetLength(packetPushStarted)) - sum(packetLength(packetPulled)) - sum(packetLength(packetRemoved)) - sum(packetLength(packetDropped))))"
attr title "queue bit length"
attr unit b
vector 149 Eastleigh_5GNet.gnb4.x2ppp[5].ppp transmissionState:vector ETV
attr interpolationmode sample-hold
attr recordingmode vector
attr source transmissionStateChanged
attr title "tx state"
vector 150 Eastleigh_5GNet.gnb4.x2ppp[6].queue queueLength:vector ETV
attr autoWarmupFilter false
attr interpolationmode sample-hold
attr recordingmode vector
attr source "warmup(atomic(constant0(packetPushEnded) + count(packetPushStarted) - count(packetPulled) - count(packetRemoved) - count(packetDropped)))"
attr title "queue length"
attr unit pk
vector 151 Eastleigh_5GNet.gnb4.x2ppp[6].queue queueBitLength:vector ETV
attr autoWarmupFilter false
attr interpolationmode sample-hold
attr recordingmode vector
attr source "warmup(atomic(constant0(packetPushEnded) + sum(packetLength(packetPushStarted)) - sum(packetLength(packetPulled)) - sum(packetLength(packetRemoved)) - sum(packetLength(packetDropped))))"
attr title "queue bit length"
attr unit b
vector 152 Eastleigh_5GNet.gnb4.x2ppp[6].ppp transmissionState:vector ETV
attr interpolationmode sample-hold
attr recordingmode vector
attr source transmissionStateChanged
attr title "tx state"
vector 153 Eastleigh_5GNet.gnb4.x2ppp[7].queue queueLength:vector ETV
attr autoWarmupFilter false
attr interpolationmode sample-hold
attr recordingmode vector
attr source "warmup(atomic(constant0(packetPushEnded) + count(packetPushStarted) - count(packetPulled) - count(packetRemoved) - count(packetDropped)))"
attr title "queue length"
attr unit pk
vector 154 Eastleigh_5GNet.gnb4.x2ppp[7].queue queueBitLength:vector ETV
attr autoWarmupFilter false
attr interpolationmode sample-hold
attr recordingmode vector
attr source "warmup(atomic(constant0(packetPushEnded) + sum(packetLength(packetPushStarted)) - sum(packetLength(packetPulled)) - sum(packetLength(packetRemoved)) - sum(packetLength(packetDropped))))"
attr title "queue bit length"
attr unit b
vector 155 Eastleigh_5GNet.gnb4.x2ppp[7].ppp transmissionState:vector ETV
attr interpolationmode sample-hold
attr recordingmode vector
attr source transmissionStateChanged
attr title "tx state"
vector 156 Eastleigh_5GNet.gnb4.pppMEHostIf.queue queueLength:vector ETV
attr autoWarmupFilter false
attr interpolationmode sample-hold
attr recordingmode vector
attr source "warmup(atomic(constant0(packetPushEnded) + count(packetPushStarted) - count(packetPulled) - count(packetRemoved) - count(packetDropped)))"
attr title "queue length"
attr unit pk
vector 157 Eastleigh_5GNet.gnb4.pppMEHostIf.queue queueBitLength:vector ETV
attr autoWarmupFilter false
attr interpolationmode sample-hold
attr recordingmode vector
attr source "warmup(atomic(constant0(packetPushEnded) + sum(packetLength(packetPushStarted)) - sum(packetLength(packetPulled)) - sum(packetLength(packetRemoved)) - sum(packetLength(packetDropped))))"
attr title "queue bit length"
attr unit b
vector 158 Eastleigh_5GNet.gnb4.pppMEHostIf.ppp transmissionState:vector ETV
attr interpolationmode sample-hold
attr recordingmode vector
attr source transmissionStateChanged
attr title "tx state"
vector 159 Eastleigh_5GNet.gnb4.udp passedUpPk:vector(count) ETV
attr interpolationmode none
attr recordingmode vector(count)
attr source packetSentToUpper
attr title "packets passed up, count"
vector 160 Eastleigh_5GNet.gnb4.udp droppedPkWrongPort:vector(count) ETV
attr interpolationmode none
attr recordingmode vector(count)
attr source packetDropReasonIsNoPortFound(packetDropped)
attr title "packets dropped (wrong port), count"
vector 161 Eastleigh_5GNet.gnb4.udp droppedPkBadChecksum:vector(count) ETV
attr interpolationmode none
attr recordingmode vector(count)
attr source packetDropReasonIsIncorrectlyReceived(packetDropped)
attr title "packets dropped (checksum error), count"
vector 162 Eastleigh_5GNet.gnb5.pppIf.queue queueLength:vector ETV
attr autoWarmupFilter false
attr interpolationmode sample-hold
attr recordingmode vector
attr source "warmup(atomic(constant0(packetPushEnded) + count(packetPushStarted) - count(packetPulled) - count(packetRemoved) - count(packetDropped)))"
attr title "queue length"
attr unit pk
vector 163 Eastleigh_5GNet.gnb5.pppIf.queue queueBitLength:vector ETV
attr autoWarmupFilter false
attr interpolationmode sample-hold
attr recordingmode vector
attr source "warmup(atomic(constant0(packetPushEnded) + sum(packetLength(packetPushStarted)) - sum(packetLength(packetPulled)) - sum(packetLength(packetRemoved)) - sum(packetLength(packetDropped))))"
attr title "queue bit length"
attr unit b
vector 164 Eastleigh_5GNet.gnb5.pppIf.ppp transmissionState:vector ETV
attr interpolationmode sample-hold
attr recordingmode vector
attr source transmissionStateChanged
attr title "tx state"
vector 165 Eastleigh_5GNet.gnb5.x2ppp[0].queue queueLength:vector ETV
attr autoWarmupFilter false
attr interpolationmode sample-hold
attr recordingmode vector
attr source "warmup(atomic(constant0(packetPushEnded) + count(packetPushStarted) - count(packetPulled) - count(packetRemoved) - count(packetDropped)))"
attr title "queue length"
attr unit pk
vector 166 Eastleigh_5GNet.gnb5.x2ppp[0].queue queueBitLength:vector ETV
attr autoWarmupFilter false
attr interpolationmode sample-hold
attr recordingmode vector
attr source "warmup(atomic(constant0(packetPushEnded) + sum(packetLength(packetPushStarted)) - sum(packetLength(packetPulled)) - sum(packetLength(packetRemoved)) - sum(packetLength(packetDropped))))"
attr title "queue bit length"
attr unit b
vector 167 Eastleigh_5GNet.gnb5.x2ppp[0].ppp transmissionState:vector ETV
attr interpolationmode sample-hold
attr recordingmode vector
attr source transmissionStateChanged
attr title "tx state"
vector 168 Eastleigh_5GNet.gnb5.x2ppp[1].queue queueLength:vector ETV
attr autoWarmupFilter false
attr interpolationmode sample-hold
attr recordingmode vector
attr source "warmup(atomic(constant0(packetPushEnded) + count(packetPushStarted) - count(packetPulled) - count(packetRemoved) - count(packetDropped)))"
attr title "queue length"
attr unit pk
vector 169 Eastleigh_5GNet.gnb5.x2ppp[1].queue queueBitLength:vector ETV
attr autoWarmupFilter false
attr interpolationmode sample-hold
attr recordingmode vector
attr source "warmup(atomic(constant0(packetPushEnded) + sum(packetLength(packetPushStarted)) - sum(packetLength(packetPulled)) - sum(packetLength(packetRemoved)) - sum(packetLength(packetDropped))))"
attr title "queue bit length"
attr unit b
vector 170 Eastleigh_5GNet.gnb5.x2ppp[1].ppp transmissionState:vector ETV
attr interpolationmode sample-hold
attr recordingmode vector
attr source transmissionStateChanged
attr title "tx state"
vector 171 Eastleigh_5GNet.gnb5.x2ppp[2].queue queueLength:vector ETV
attr autoWarmupFilter false
attr interpolationmode sample-hold
attr recordingmode vector
attr source "warmup(atomic(constant0(packetPushEnded) + count(packetPushStarted) - count(packetPulled) - count(packetRemoved) - count(packetDropped)))"
attr title "queue length"
attr unit pk
vector 172 Eastleigh_5GNet.gnb5.x2ppp[2].queue queueBitLength:vector ETV
attr autoWarmupFilter false
attr interpolationmode sample-hold
attr recordingmode vector
attr source "warmup(atomic(constant0(packetPushEnded) + sum(packetLength(packetPushStarted)) - sum(packetLength(packetPulled)) - sum(packetLength(packetRemoved)) - sum(packetLength(packetDropped))))"
attr title "queue bit length"
attr unit b
vector 173 Eastleigh_5GNet.gnb5.x2ppp[2].ppp transmissionState:vector ETV
attr interpolationmode sample-hold
attr recordingmode vector
attr source transmissionStateChanged
attr title "tx state"
vector 174 Eastleigh_5GNet.gnb5.x2ppp[3].queue queueLength:vector ETV
attr autoWarmupFilter false
attr interpolationmode sample-hold
attr recordingmode vector
attr source "warmup(atomic(constant0(packetPushEnded) + count(packetPushStarted) - count(packetPulled) - count(packetRemoved) - count(packetDropped)))"
attr title "queue length"
attr unit pk
vector 175 Eastleigh_5GNet.gnb5.x2ppp[3].queue queueBitLength:vector ETV
attr autoWarmupFilter false
attr interpolationmode sample-hold
attr recordingmode vector
attr source "warmup(atomic(constant0(packetPushEnded) + sum(packetLength(packetPushStarted)) - sum(packetLength(packetPulled)) - sum(packetLength(packetRemoved)) - sum(packetLength(packetDropped))))"
attr title "queue bit length"
attr unit b
vector 176 Eastleigh_5GNet.gnb5.x2ppp[3].ppp transmissionState:vector ETV
attr interpolationmode sample-hold
attr recordingmode vector
attr source transmissionStateChanged
attr title "tx state"
vector 177 Eastleigh_5GNet.gnb5.x2ppp[4].queue queueLength:vector ETV
attr autoWarmupFilter false
attr interpolationmode sample-hold
attr recordingmode vector
attr source "warmup(atomic(constant0(packetPushEnded) + count(packetPushStarted) - count(packetPulled) - count(packetRemoved) - count(packetDropped)))"
attr title "queue length"
attr unit pk
vector 178 Eastleigh_5GNet.gnb5.x2ppp[4].queue queueBitLength:vector ETV
attr autoWarmupFilter false
attr interpolationmode sample-hold
attr recordingmode vector
attr source "warmup(atomic(constant0(packetPushEnded) + sum(packetLength(packetPushStarted)) - sum(packetLength(packetPulled)) - sum(packetLength(packetRemoved)) - sum(packetLength(packetDropped))))"
attr title "queue bit length"
attr unit b
vector 179 Eastleigh_5GNet.gnb5.x2ppp[4].ppp transmissionState:vector ETV
attr interpolationmode sample-hold
attr recordingmode vector
attr source transmissionStateChanged
attr title "tx state"
vector 180 Eastleigh_5GNet.gnb5.pppMEHostIf.queue queueLength:vector ETV
attr autoWarmupFilter false
attr interpolationmode sample-hold
attr recordingmode vector
attr source "warmup(atomic(constant0(packetPushEnded) + count(packetPushStarted) - count(packetPulled) - count(packetRemoved) - count(packetDropped)))"
attr title "queue length"
attr unit pk
vector 181 Eastleigh_5GNet.gnb5.pppMEHostIf.queue queueBitLength:vector ETV
attr autoWarmupFilter false
attr interpolationmode sample-hold
attr recordingmode vector
attr source "warmup(atomic(constant0(packetPushEnded) + sum(packetLength(packetPushStarted)) - sum(packetLength(packetPulled)) - sum(packetLength(packetRemoved)) - sum(packetLength(packetDropped))))"
attr title "queue bit length"
attr unit b
vector 182 Eastleigh_5GNet.gnb5.pppMEHostIf.ppp transmissionState:vector ETV
attr interpolationmode sample-hold
attr recordingmode vector
attr source transmissionStateChanged
attr title "tx state"
vector 183 Eastleigh_5GNet.gnb5.udp passedUpPk:vector(count) ETV
attr interpolationmode none
attr recordingmode vector(count)
attr source packetSentToUpper
attr title "packets passed up, count"
vector 184 Eastleigh_5GNet.gnb5.udp droppedPkWrongPort:vector(count) ETV
attr interpolationmode none
attr recordingmode vector(count)
attr source packetDropReasonIsNoPortFound(packetDropped)
attr title "packets dropped (wrong port), count"
vector 185 Eastleigh_5GNet.gnb5.udp droppedPkBadChecksum:vector(count) ETV
attr interpolationmode none
attr recordingmode vector(count)
attr source packetDropReasonIsIncorrectlyReceived(packetDropped)
attr title "packets dropped (checksum error), count"
vector 186 Eastleigh_5GNet.gnb6.pppIf.queue queueLength:vector ETV
attr autoWarmupFilter false
attr interpolationmode sample-hold
attr recordingmode vector
attr source "warmup(atomic(constant0(packetPushEnded) + count(packetPushStarted) - count(packetPulled) - count(packetRemoved) - count(packetDropped)))"
attr title "queue length"
attr unit pk
vector 187 Eastleigh_5GNet.gnb6.pppIf.queue queueBitLength:vector ETV
attr autoWarmupFilter false
attr interpolationmode sample-hold
attr recordingmode vector
attr source "warmup(atomic(constant0(packetPushEnded) + sum(packetLength(packetPushStarted)) - sum(packetLength(packetPulled)) - sum(packetLength(packetRemoved)) - sum(packetLength(packetDropped))))"
attr title "queue bit length"
attr unit b
vector 188 Eastleigh_5GNet.gnb6.pppIf.ppp transmissionState:vector ETV
attr interpolationmode sample-hold
attr recordingmode vector
attr source transmissionStateChanged
attr title "tx state"
vector 189 Eastleigh_5GNet.gnb6.x2ppp[0].queue queueLength:vector ETV
attr autoWarmupFilter false
attr interpolationmode sample-hold
attr recordingmode vector
attr source "warmup(atomic(constant0(packetPushEnded) + count(packetPushStarted) - count(packetPulled) - count(packetRemoved) - count(packetDropped)))"
attr title "queue length"
attr unit pk
vector 190 Eastleigh_5GNet.gnb6.x2ppp[0].queue queueBitLength:vector ETV
attr autoWarmupFilter false
attr interpolationmode sample-hold
attr recordingmode vector
attr source "warmup(atomic(constant0(packetPushEnded) + sum(packetLength(packetPushStarted)) - sum(packetLength(packetPulled)) - sum(packetLength(packetRemoved)) - sum(packetLength(packetDropped))))"
attr title "queue bit length"
attr unit b
vector 191 Eastleigh_5GNet.gnb6.x2ppp[0].ppp transmissionState:vector ETV
attr interpolationmode sample-hold
attr recordingmode vector
attr source transmissionStateChanged
attr title "tx state"
vector 192 Eastleigh_5GNet.gnb6.x2ppp[1].queue queueLength:vector ETV
attr autoWarmupFilter false
attr interpolationmode sample-hold
attr recordingmode vector
attr source "warmup(atomic(constant0(packetPushEnded) + count(packetPushStarted) - count(packetPulled) - count(packetRemoved) - count(packetDropped)))"
attr title "queue length"
attr unit pk
vector 193 Eastleigh_5GNet.gnb6.x2ppp[1].queue queueBitLength:vector ETV
attr autoWarmupFilter false
attr interpolationmode sample-hold
attr recordingmode vector
attr source "warmup(atomic(constant0(packetPushEnded) + sum(packetLength(packetPushStarted)) - sum(packetLength(packetPulled)) - sum(packetLength(packetRemoved)) - sum(packetLength(packetDropped))))"
attr title "queue bit length"
attr unit b
vector 194 Eastleigh_5GNet.gnb6.x2ppp[1].ppp transmissionState:vector ETV
attr interpolationmode sample-hold
attr recordingmode vector
attr source transmissionStateChanged
attr title "tx state"
vector 195 Eastleigh_5GNet.gnb6.x2ppp[2].queue queueLength:vector ETV
attr autoWarmupFilter false
attr interpolationmode sample-hold
attr recordingmode vector
attr source "warmup(atomic(constant0(packetPushEnded) + count(packetPushStarted) - count(packetPulled) - count(packetRemoved) - count(packetDropped)))"
attr title "queue length"
attr unit pk
vector 196 Eastleigh_5GNet.gnb6.x2ppp[2].queue queueBitLength:vector ETV
attr autoWarmupFilter false
attr interpolationmode sample-hold
attr recordingmode vector
attr source "warmup(atomic(constant0(packetPushEnded) + sum(packetLength(packetPushStarted)) - sum(packetLength(packetPulled)) - sum(packetLength(packetRemoved)) - sum(packetLength(packetDropped))))"
attr title "queue bit length"
attr unit b
vector 197 Eastleigh_5GNet.gnb6.x2ppp[2].ppp transmissionState:vector ETV
attr interpolationmode sample-hold
attr recordingmode vector
attr source transmissionStateChanged
attr title "tx state"
vector 198 Eastleigh_5GNet.gnb6.pppMEHostIf.queue queueLength:vector ETV
attr autoWarmupFilter false
attr interpolationmode sample-hold
attr recordingmode vector
attr source "warmup(atomic(constant0(packetPushEnded) + count(packetPushStarted) - count(packetPulled) - count(packetRemoved) - count(packetDropped)))"
attr title "queue length"
attr unit pk
vector 199 Eastleigh_5GNet.gnb6.pppMEHostIf.queue queueBitLength:vector ETV
attr autoWarmupFilter false
attr interpolationmode sample-hold
attr recordingmode vector
attr source "warmup(atomic(constant0(packetPushEnded) + sum(packetLength(packetPushStarted)) - sum(packetLength(packetPulled)) - sum(packetLength(packetRemoved)) - sum(packetLength(packetDropped))))"
attr title "queue bit length"
attr unit b
vector 200 Eastleigh_5GNet.gnb6.pppMEHostIf.ppp transmissionState:vector ETV
attr interpolationmode sample-hold
attr recordingmode vector
attr source transmissionStateChanged
attr title "tx state"
vector 201 Eastleigh_5GNet.gnb6.udp passedUpPk:vector(count) ETV
attr interpolationmode none
attr recordingmode vector(count)
attr source packetSentToUpper
attr title "packets passed up, count"
vector 202 Eastleigh_5GNet.gnb6.udp droppedPkWrongPort:vector(count) ETV
attr interpolationmode none
attr recordingmode vector(count)
attr source packetDropReasonIsNoPortFound(packetDropped)
attr title "packets dropped (wrong port), count"
vector 203 Eastleigh_5GNet.gnb6.udp droppedPkBadChecksum:vector(count) ETV
attr interpolationmode none
attr recordingmode vector(count)
attr source packetDropReasonIsIncorrectlyReceived(packetDropped)
attr title "packets dropped (checksum error), count"
vector 204 Eastleigh_5GNet.gnb7.pppIf.queue queueLength:vector ETV
attr autoWarmupFilter false
attr interpolationmode sample-hold
attr recordingmode vector
attr source "warmup(atomic(constant0(packetPushEnded) + count(packetPushStarted) - count(packetPulled) - count(packetRemoved) - count(packetDropped)))"
attr title "queue length"
attr unit pk
vector 205 Eastleigh_5GNet.gnb7.pppIf.queue queueBitLength:vector ETV
attr autoWarmupFilter false
attr interpolationmode sample-hold
attr recordingmode vector
attr source "warmup(atomic(constant0(packetPushEnded) + sum(packetLength(packetPushStarted)) - sum(packetLength(packetPulled)) - sum(packetLength(packetRemoved)) - sum(packetLength(packetDropped))))"
attr title "queue bit length"
attr unit b
vector 206 Eastleigh_5GNet.gnb7.pppIf.ppp transmissionState:vector ETV
attr interpolationmode sample-hold
attr recordingmode vector
attr source transmissionStateChanged
attr title "tx state"
vector 207 Eastleigh_5GNet.gnb7.x2ppp[0].queue queueLength:vector ETV
attr autoWarmupFilter false
attr interpolationmode sample-hold
attr recordingmode vector
attr source "warmup(atomic(constant0(packetPushEnded) + count(packetPushStarted) - count(packetPulled) - count(packetRemoved) - count(packetDropped)))"
attr title "queue length"
attr unit pk
vector 208 Eastleigh_5GNet.gnb7.x2ppp[0].queue queueBitLength:vector ETV
attr autoWarmupFilter false
attr interpolationmode sample-hold
attr recordingmode vector
attr source "warmup(atomic(constant0(packetPushEnded) + sum(packetLength(packetPushStarted)) - sum(packetLength(packetPulled)) - sum(packetLength(packetRemoved)) - sum(packetLength(packetDropped))))"
attr title "queue bit length"
attr unit b
vector 209 Eastleigh_5GNet.gnb7.x2ppp[0].ppp transmissionState:vector ETV
attr interpolationmode sample-hold
attr recordingmode vector
attr source transmissionStateChanged
attr title "tx state"
vector 210 Eastleigh_5GNet.gnb7.x2ppp[1].queue queueLength:vector ETV
attr autoWarmupFilter false
attr interpolationmode sample-hold
attr recordingmode vector
attr source "warmup(atomic(constant0(packetPushEnded) + count(packetPushStarted) - count(packetPulled) - count(packetRemoved) - count(packetDropped)))"
attr title "queue length"
attr unit pk
vector 211 Eastleigh_5GNet.gnb7.x2ppp[1].queue queueBitLength:vector ETV
attr autoWarmupFilter false
attr interpolationmode sample-hold
attr recordingmode vector
attr source "warmup(atomic(constant0(packetPushEnded) + sum(packetLength(packetPushStarted)) - sum(packetLength(packetPulled)) - sum(packetLength(packetRemoved)) - sum(packetLength(packetDropped))))"
attr title "queue bit length"
attr unit b
vector 212 Eastleigh_5GNet.gnb7.x2ppp[1].ppp transmissionState:vector ETV
attr interpolationmode sample-hold
attr recordingmode vector
attr source transmissionStateChanged
attr title "tx state"
vector 213 Eastleigh_5GNet.gnb7.x2ppp[2].queue queueLength:vector ETV
attr autoWarmupFilter false
attr interpolationmode sample-hold
attr recordingmode vector
attr source "warmup(atomic(constant0(packetPushEnded) + count(packetPushStarted) - count(packetPulled) - count(packetRemoved) - count(packetDropped)))"
attr title "queue length"
attr unit pk
vector 214 Eastleigh_5GNet.gnb7.x2ppp[2].queue queueBitLength:vector ETV
attr autoWarmupFilter false
attr interpolationmode sample-hold
attr recordingmode vector
attr source "warmup(atomic(constant0(packetPushEnded) + sum(packetLength(packetPushStarted)) - sum(packetLength(packetPulled)) - sum(packetLength(packetRemoved)) - sum(packetLength(packetDropped))))"
attr title "queue bit length"
attr unit b
vector 215 Eastleigh_5GNet.gnb7.x2ppp[2].ppp transmissionState:vector ETV
attr interpolationmode sample-hold
attr recordingmode vector
attr source transmissionStateChanged
attr title "tx state"
vector 216 Eastleigh_5GNet.gnb7.x2ppp[3].queue queueLength:vector ETV
attr autoWarmupFilter false
attr interpolationmode sample-hold
attr recordingmode vector
attr source "warmup(atomic(constant0(packetPushEnded) + count(packetPushStarted) - count(packetPulled) - count(packetRemoved) - count(packetDropped)))"
attr title "queue length"
attr unit pk
vector 217 Eastleigh_5GNet.gnb7.x2ppp[3].queue queueBitLength:vector ETV
attr autoWarmupFilter false
attr interpolationmode sample-hold
attr recordingmode vector
attr source "warmup(atomic(constant0(packetPushEnded) + sum(packetLength(packetPushStarted)) - sum(packetLength(packetPulled)) - sum(packetLength(packetRemoved)) - sum(packetLength(packetDropped))))"
attr title "queue bit length"
attr unit b
vector 218 Eastleigh_5GNet.gnb7.x2ppp[3].ppp transmissionState:vector ETV
attr interpolationmode sample-hold
attr recordingmode vector
attr source transmissionStateChanged
attr title "tx state"
vector 219 Eastleigh_5GNet.gnb7.x2ppp[4].queue queueLength:vector ETV
attr autoWarmupFilter false
attr interpolationmode sample-hold
attr recordingmode vector
attr source "warmup(atomic(constant0(packetPushEnded) + count(packetPushStarted) - count(packetPulled) - count(packetRemoved) - count(packetDropped)))"
attr title "queue length"
attr unit pk
vector 220 Eastleigh_5GNet.gnb7.x2ppp[4].queue queueBitLength:vector ETV
attr autoWarmupFilter false
attr interpolationmode sample-hold
attr recordingmode vector
attr source "warmup(atomic(constant0(packetPushEnded) + sum(packetLength(packetPushStarted)) - sum(packetLength(packetPulled)) - sum(packetLength(packetRemoved)) - sum(packetLength(packetDropped))))"
attr title "queue bit length"
attr unit b
vector 221 Eastleigh_5GNet.gnb7.x2ppp[4].ppp transmissionState:vector ETV
attr interpolationmode sample-hold
attr recordingmode vector
attr source transmissionStateChanged
attr title "tx state"
vector 222 Eastleigh_5GNet.gnb7.pppMEHostIf.queue queueLength:vector ETV
attr autoWarmupFilter false
attr interpolationmode sample-hold
attr recordingmode vector
attr source "warmup(atomic(constant0(packetPushEnded) + count(packetPushStarted) - count(packetPulled) - count(packetRemoved) - count(packetDropped)))"
attr title "queue length"
attr unit pk
vector 223 Eastleigh_5GNet.gnb7.pppMEHostIf.queue queueBitLength:vector ETV
attr autoWarmupFilter false
attr interpolationmode sample-hold
attr recordingmode vector
attr source "warmup(atomic(constant0(packetPushEnded) + sum(packetLength(packetPushStarted)) - sum(packetLength(packetPulled)) - sum(packetLength(packetRemoved)) - sum(packetLength(packetDropped))))"
attr title "queue bit length"
attr unit b
vector 224 Eastleigh_5GNet.gnb7.pppMEHostIf.ppp transmissionState:vector ETV
attr interpolationmode sample-hold
attr recordingmode vector
attr source transmissionStateChanged
attr title "tx state"
vector 225 Eastleigh_5GNet.gnb7.udp passedUpPk:vector(count) ETV
attr interpolationmode none
attr recordingmode vector(count)
attr source packetSentToUpper
attr title "packets passed up, count"
vector 226 Eastleigh_5GNet.gnb7.udp droppedPkWrongPort:vector(count) ETV
attr interpolationmode none
attr recordingmode vector(count)
attr source packetDropReasonIsNoPortFound(packetDropped)
attr title "packets dropped (wrong port), count"
vector 227 Eastleigh_5GNet.gnb7.udp droppedPkBadChecksum:vector(count) ETV
attr interpolationmode none
attr recordingmode vector(count)
attr source packetDropReasonIsIncorrectlyReceived(packetDropped)
attr title "packets dropped (checksum error), count"
vector 228 Eastleigh_5GNet.gnb8.pppIf.queue queueLength:vector ETV
attr autoWarmupFilter false
attr interpolationmode sample-hold
attr recordingmode vector
attr source "warmup(atomic(constant0(packetPushEnded) + count(packetPushStarted) - count(packetPulled) - count(packetRemoved) - count(packetDropped)))"
attr title "queue length"
attr unit pk
vector 229 Eastleigh_5GNet.gnb8.pppIf.queue queueBitLength:vector ETV
attr autoWarmupFilter false
attr interpolationmode sample-hold
attr recordingmode vector
attr source "warmup(atomic(constant0(packetPushEnded) + sum(packetLength(packetPushStarted)) - sum(packetLength(packetPulled)) - sum(packetLength(packetRemoved)) - sum(packetLength(packetDropped))))"
attr title "queue bit length"
attr unit b
vector 230 Eastleigh_5GNet.gnb8.pppIf.ppp transmissionState:vector ETV
attr interpolationmode sample-hold
attr recordingmode vector
attr source transmissionStateChanged
attr title "tx state"
vector 231 Eastleigh_5GNet.gnb8.x2ppp[0].queue queueLength:vector ETV
attr autoWarmupFilter false
attr interpolationmode sample-hold
attr recordingmode vector
attr source "warmup(atomic(constant0(packetPushEnded) + count(packetPushStarted) - count(packetPulled) - count(packetRemoved) - count(packetDropped)))"
attr title "queue length"
attr unit pk
vector 232 Eastleigh_5GNet.gnb8.x2ppp[0].queue queueBitLength:vector ETV
attr autoWarmupFilter false
attr interpolationmode sample-hold
attr recordingmode vector
attr source "warmup(atomic(constant0(packetPushEnded) + sum(packetLength(packetPushStarted)) - sum(packetLength(packetPulled)) - sum(packetLength(packetRemoved)) - sum(packetLength(packetDropped))))"
attr title "queue bit length"
attr unit b
vector 233 Eastleigh_5GNet.gnb8.x2ppp[0].ppp transmissionState:vector ETV
attr interpolationmode sample-hold
attr recordingmode vector
attr source transmissionStateChanged
attr title "tx state"
vector 234 Eastleigh_5GNet.gnb8.x2ppp[1].queue queueLength:vector ETV
attr autoWarmupFilter false
attr interpolationmode sample-hold
attr recordingmode vector
attr source "warmup(atomic(constant0(packetPushEnded) + count(packetPushStarted) - count(packetPulled) - count(packetRemoved) - count(packetDropped)))"
attr title "queue length"
attr unit pk
vector 235 Eastleigh_5GNet.gnb8.x2ppp[1].queue queueBitLength:vector ETV
attr autoWarmupFilter false
attr interpolationmode sample-hold
attr recordingmode vector
attr source "warmup(atomic(constant0(packetPushEnded) + sum(packetLength(packetPushStarted)) - sum(packetLength(packetPulled)) - sum(packetLength(packetRemoved)) - sum(packetLength(packetDropped))))"
attr title "queue bit length"
attr unit b
vector 236 Eastleigh_5GNet.gnb8.x2ppp[1].ppp transmissionState:vector ETV
attr interpolationmode sample-hold
attr recordingmode vector
attr source transmissionStateChanged
attr title "tx state"
vector 237 Eastleigh_5GNet.gnb8.x2ppp[2].queue queueLength:vector ETV
attr autoWarmupFilter false
attr interpolationmode sample-hold
attr recordingmode vector
attr source "warmup(atomic(constant0(packetPushEnded) + count(packetPushStarted) - count(packetPulled) - count(packetRemoved) - count(packetDropped)))"
attr title "queue length"
attr unit pk
vector 238 Eastleigh_5GNet.gnb8.x2ppp[2].queue queueBitLength:vector ETV
attr autoWarmupFilter false
attr interpolationmode sample-hold
attr recordingmode vector
attr source "warmup(atomic(constant0(packetPushEnded) + sum(packetLength(packetPushStarted)) - sum(packetLength(packetPulled)) - sum(packetLength(packetRemoved)) - sum(packetLength(packetDropped))))"
attr title "queue bit length"
attr unit b
vector 239 Eastleigh_5GNet.gnb8.x2ppp[2].ppp transmissionState:vector ETV
attr interpolationmode sample-hold
attr recordingmode vector
attr source transmissionStateChanged
attr title "tx state"
vector 240 Eastleigh_5GNet.gnb8.pppMEHostIf.queue queueLength:vector ETV
attr autoWarmupFilter false
attr interpolationmode sample-hold
attr recordingmode vector
attr source "warmup(atomic(constant0(packetPushEnded) + count(packetPushStarted) - count(packetPulled) - count(packetRemoved) - count(packetDropped)))"
attr title "queue length"
attr unit pk
vector 241 Eastleigh_5GNet.gnb8.pppMEHostIf.queue queueBitLength:vector ETV
attr autoWarmupFilter false
attr interpolationmode sample-hold
attr recordingmode vector
attr source "warmup(atomic(constant0(packetPushEnded) + sum(packetLength(packetPushStarted)) - sum(packetLength(packetPulled)) - sum(packetLength(packetRemoved)) - sum(packetLength(packetDropped))))"
attr title "queue bit length"
attr unit b
vector 242 Eastleigh_5GNet.gnb8.pppMEHostIf.ppp transmissionState:vector ETV
attr interpolationmode sample-hold
attr recordingmode vector
attr source transmissionStateChanged
attr title "tx state"
vector 243 Eastleigh_5GNet.gnb8.udp passedUpPk:vector(count) ETV
attr interpolationmode none
attr recordingmode vector(count)
attr source packetSentToUpper
attr title "packets passed up, count"
vector 244 Eastleigh_5GNet.gnb8.udp droppedPkWrongPort:vector(count) ETV
attr interpolationmode none
attr recordingmode vector(count)
attr source packetDropReasonIsNoPortFound(packetDropped)
attr title "packets dropped (wrong port), count"
vector 245 Eastleigh_5GNet.gnb8.udp droppedPkBadChecksum:vector(count) ETV
attr interpolationmode none
attr recordingmode vector(count)
attr source packetDropReasonIsIncorrectlyReceived(packetDropped)
attr title "packets dropped (checksum error), count"
[...]
592	17506263 8946 556158 970133 11.394 19.894 426 75 75 31950 2396250
593	17515209 8520 556158 970133 11.394 19.894 426 0 0 0 0
594	17523729 8946 556159 970134 11.394 19.894 426 75 75 31950 2396250
595	17532675 8946 556159 970134 11.394 19.894 426 74 74 31524 2332776
596	17541621 8946 556163 970138 11.394 19.894 426 90 90 38340 3450600
597	17550567 9372 556165 970140 11.394 19.894 426 880 880 374880 329894400
598	17559939 8520 556165 970140 11.394 19.894 426 0 0 0 0
599	17568459 9372 556165 970140 11.394 19.894 426 880 880 374880 329894400
600	17577831 9372 556165 970140 11.394 19.894 426 110 110 46860 5154600
601	17587203 9372 556165 970140 11.394 19.894 426 117 117 49842 5831514
602	17596575 12354 556194 970169 11.3940001436 19.8940001436 426 117 117 49842 5831514
603	17608929 12354 556194 970169 11.3940001436 19.8940001436 426 110 110 46860 5154600
604	17621283 59698 556196 971414 11.3940001436 19.9220001724 2132 73 142 234142 27041458
605	17680981 60977 556198 971416 11.3940001436 19.9220001724 2132 456 1008 1600240 1286061184
606	17741958 56286 556198 971416 11.3940001436 19.9220001724 2132 0 0 0 0
607	17798244 60977 556198 971416 11.3940001436 19.9220001724 2132 456 1008 1600240 1286061184
608	17859221 59698 556198 971416 11.3940001436 19.9220001724 2132 57 126 200030 20094706
609	17918919 59698 556198 971416 11.3940001436 19.9220001724 2132 64 133 214954 22999594
610	17978617 60549 556200 971418 11.3940002584 19.922000316 2132 64 133 214954 22999594
611	18039166 60549 556200 971418 11.3940002584 19.922000316 2132 57 126 200030 20094706
612	18099715 61828 556202 971420 11.3940002584 19.922000316 2132 456 1008 1600240 1286061184
613	18161543 57137 556202 971420 11.3940002584 19.922000316 2132 0 0 0 0
614	18218680 61828 556202 971420 11.3940002584 19.922000316 2132 456 1008 1600240 1286061184
615	18280508 60549 556202 971420 11.3940002584 19.922000316 2132 57 126 200030 20094706
616	18341057 60549 556202 971420 11.3940002584 19.922000316 2132 64 133 214954 22999594
617	18401606 60549 556204 971422 11.3940003732 19.9220004596 2132 64 133 214954 22999594
618	18462155 60549 556204 971422 11.3940003732 19.9220004596 2132 57 126 200030 20094706
619	18522704 59696 556206 971424 11.3940003732 19.9220004596 2132 37 106 157390 12946306
620	18582400 59269 556207 971425 11.3940003732 19.9220004596 2132 29 98 140334 10564514
621	18641669 84853 556207 971425 11.3940003732 19.9220004596 2132 0.008640599429 0.014475574667 28.25964454654 0.3859251056795
622	18726522 61401 556207 971425 11.3940003732 19.9220004596 2132 569 995 1666585 1335072855
623	18787923 12780 556209 970184 11.394524865733 19.894524865733 426 82 82 34932 2864424
624	18800703 13206 556212 970187 11.394524865733 19.894524865733 426 102 102 43452 4432104
625	18813909 13206 556212 970187 11.394524865733 19.894524865733 426 103 103 43878 4519434
626	18827115 13206 556213 970188 11.394524865733 19.894524865733 426 103 103 43878 4519434
627	18840321 30672 556215 970676 11.394524865733 19.905 1278 8 105 90312 8899140
628	18870993 14456 556228 971102 11.395 19.915 427 6351.5942756716 6352.786309785 2712338.4895212 17228993214.428
629	18885449 8540 556228 971102 11.395 19.915 427 0 0 0 0
630	18893989 14091 556228 971102 11.395 19.915 427 0.014295603815 0.014295603815 6.104222829005 0.087263551161934
631	18908080 9394 556228 971102 11.395 19.915 427 127 127 54229 6887083
632	18917474 9394 556229 971103 11.395 19.915 427 127 127 54229 6887083
633	18926868 9394 556229 971103 11.395 19.915 427 126 126 53802 6779052
634	18936262 9394 556233 971107 11.395 19.915 427 142 142 60634 8610028
635	18945656 9821 556235 971109 11.395 19.915 427 1296 1296 553392 717196032
636	18955477 8540 556235 971109 11.395 19.915 427 0 0 0 0
637	18964017 9821 556235 971109 11.395 19.915 427 1296 1296 553392 717196032
638	18973838 9394 556235 971109 11.395 19.915 427 162 162 69174 11206188
639	18983232 9394 556235 971109 11.395 19.915 427 169 169 72163 12195547
640	18992626 26838 556242 970698 11.395 19.905 1278 1 101 47712 4388652
641	19019464 8520 556264 970234 11.395 19.895 426 0 0 0 0
642	19027984 8520 556264 970234 11.395 19.895 426 0 0 0 0
643	19036504 8520 556264 970234 11.395 19.895 426 1 1 426 426
644	19045024 12383 556266 971135 11.3950001852 19.9150001852 427 169 169 72163 12195547
645	19057407 12383 556266 971135 11.3950001852 19.9150001852 427 162 162 69174 11206188
646	19069790 20496 556285 971367 11.396 19.922 854 0.004 0.004 3.416 0.013664
647	19090286 17934 556285 971367 11.396 19.922 854 44 71 49105 2979179
648	19108220 17934 556289 971370 11.396 19.922 854 44 71 49105 2979179
649	19126154 17080 556289 971370 11.396 19.922 854 0 0 0 0
650	19143234 20496 556289 971370 11.396 19.922 854 0.004 0.004 3.416 0.013664
651	19163730 17080 556289 971370 11.396 19.922 854 0 0 0 0
652	19180810 42600 556332 970851 11.396 19.909 2130 1 1 2130 2130
653	19223410 17080 556365 971456 11.397 19.923 854 0 0 0 0
654	19240490 17080 556365 971456 11.397 19.923 854 0 0 0 0
655	19257570 17080 556365 971456 11.397 19.923 854 1 1 854 854
656	19274650 42174 556371 970946 11.397 19.91 2130 1 1 2130 2130
657	19316824 17040 556420 970672 11.399 19.905 852 1 1 852 852
658	19333864 25560 556422 970854 11.399 19.909 1278 0 0 0 0
659	19359424 17466 556422 970674 11.399 19.905 852 8 99 45582 4202490
660	19376890 17892 556443 970699 11.399 19.905 852 11 11 9372 103092
661	19394782 28440 556484 970742 11.4 19.906 852 25.969955837344 25.969955837344 22126.402373417 574621.69247694
662	19423222 14481 556541 971370 11.402 19.922 427 5549.0264865813 5549.4428270254 2369539.5246532 13149221455.349
663	19437703 8540 556541 971370 11.402 19.922 427 0 0 0 0
664	19446243 14091 556541 971370 11.402 19.922 427 0.014406671159 0.014406671159 6.151648584893 0.088624778248281
665	19460334 9394 556541 971370 11.402 19.922 427 111 111 47397 5261067
666	19469728 9394 556542 971371 11.402 19.922 427 111 111 47397 5261067
667	19479122 9394 556542 971371 11.402 19.922 427 110 110 46970 5166700
668	19488516 9394 556546 971375 11.402 19.922 427 126 126 53802 6779052
669	19497910 9821 556548 971377 11.402 19.922 427 1168 1168 498736 582523648
670	19507731 8540 556548 971377 11.402 19.922 427 0 0 0 0
671	19516271 9821 556548 971377 11.402 19.922 427 1168 1168 498736 582523648
672	19526092 9394 556548 971377 11.402 19.922 427 146 146 62342 9101932
673	19535486 9394 556548 971377 11.402 19.922 427 153 153 65331 9995643
674	19544880 12383 556592 971412 11.4020001724 19.9220001724 427 153 153 65331 9995643
675	19557263 12383 556592 971412 11.4020001724 19.9220001724 427 146 146 62342 9101932
676	19569646 20448 556614 970851 11.403 19.909 852 0.004 0.004 3.408 0.013632
677	19590094 17466 556614 970851 11.403 19.909 852 8 99 45582 4202490
678	19607560 17466 556618 970854 11.403 19.909 852 8 99 45582 4202490
679	19625026 17040 556618 970854 11.403 19.909 852 0 0 0 0
680	19642066 20448 556618 970854 11.403 19.909 852 0.004 0.004 3.408 0.013632
681	19662514 17040 556618 970854 11.403 19.909 852 0 0 0 0
682	19679554 16614 556678 970946 11.404 19.91 852 0 0 0 0
683	19696168 16614 556678 970946 11.404 19.91 852 0 0 0 0
684	19712782 16614 556678 970946 11.404 19.91 852 1 1 852 852
685	19729396 14434 556898 970854 11.409 19.909 426 5145.937417828 5147.6719071777 2192606.4912416 11285265890.433
686	19743830 8520 556898 970854 11.409 19.909 426 0 0 0 0
687	19752350 14058 556898 970854 11.409 19.909 426 0.014475134267 0.014475134267 6.1664071977421 0.089259572132311
688	19766408 9372 556898 970854 11.409 19.909 426 103 103 43878 4519434
689	19775780 9372 556899 970855 11.409 19.909 426 103 103 43878 4519434
690	19785152 9372 556899 970855 11.409 19.909 426 102 102 43452 4432104
691	19794524 9372 556903 970859 11.409 19.909 426 118 118 50268 5931624
692	19803896 9798 556905 970861 11.409 19.909 426 1104 1104 470304 519215616
693	19813694 8520 556905 970861 11.409 19.909 426 0 0 0 0
694	19822214 9798 556905 970861 11.409 19.909 426 1104 1104 470304 519215616
695	19832012 9372 556905 970861 11.409 19.909 426 138 138 58788 8112744
696	19841384 9372 556905 970861 11.409 19.909 426 145 145 61770 8956650
697	19850756 11928 556933 970887 11.409000166 19.909000166 426 145 145 61770 8956650
698	19862684 11928 556933 970887 11.409000166 19.909000166 426 138 138 58788 8112744
699	19874612 12750 557034 970040 11.411549923779 19.891549923779 425 57 57 24225 1380825
700	19887362 12750 557034 970040 11.411549923779 19.891549923779 425 58 58 24650 1429700
701	19900112 12750 557035 970041 11.411549923779 19.891549923779 425 58 58 24650 1429700
702	19912862 30642 556303 970537 11.396 19.902 1277 26 60 51912 2370072
704	19943504 26412 556089 970551 11.392 19.902 1278 1 38 28542 949554
705	19969916 54790 556142 973955 11.393 20 2713 1 38 29977 950989
706	20024706 41544 556142 970704 11.393 19.906 2130 1 1 2130 2130
707	20066250 42600 556192 970791 11.394 19.907 2130 1 1 2130 2130
708	20108850 17040 556299 970533 11.396 19.902 852 1 1 852 852
709	20125890 25560 556301 970707 11.396 19.906 1278 0 0 0 0
710	20151450 17892 556301 970535 11.396 19.902 852 26 36 26412 840072
711	20169342 17040 556318 970552 11.396 19.902 852 4 4 3408 13632
712	20186382 28968 556368 970612 11.397 19.903 852 7.5394139076282 7.8666067246329 6562.9647893432 50577.388221427
713	20215350 19920 556452 970704 11.4 19.906 852 0.004 0.004 3.408 0.013632
714	20235270 17364 556452 970704 11.4 19.906 852 26 36 26412 840072
715	20252634 17364 556456 970707 11.4 19.906 852 26 36 26412 840072
716	20269998 16512 556456 970707 11.4 19.906 852 0 0 0 0
717	20286510 19920 556456 970707 11.4 19.906 852 0.004 0.004 3.408 0.013632
718	20306430 16512 556456 970707 11.4 19.906 852 0 0 0 0
719	20322942 17040 556530 970791 11.401 19.907 852 0 0 0 0
720	20339982 17040 556530 970791 11.401 19.907 852 0 0 0 0
721	20357022 17040 556530 970791 11.401 19.907 852 1 1 852 852
722	20374062 14438 556739 970707 11.406 19.906 426 2898.474487112 2899.1258916909 1234914.3129945 3579843583.6364
723	20388500 8520 556739 970707 11.406 19.906 426 0 0 0 0
724	20397020 14058 556739 970707 11.406 19.906 426 0.014450076221 0.014450076221 6.155732470146 0.088950803389694
725	20411078 8946 556739 970707 11.406 19.906 426 58 58 24708 1433064
726	20420024 8946 556740 970708 11.406 19.906 426 58 58 24708 1433064
727	20428970 8946 556740 970708 11.406 19.906 426 57 57 24282 1384074
728	20437916 8946 556744 970712 11.406 19.906 426 73 73 31098 2270154
729	20446862 9372 556746 970714 11.406 19.906 426 744 744 316944 235806336
730	20456234 8520 556746 970714 11.406 19.906 426 0 0 0 0
731	20464754 9372 556746 970714 11.406 19.906 426 744 744 316944 235806336
732	20474126 8946 556746 970714 11.406 19.906 426 93 93 39618 3684474
733	20483072 9372 556746 970714 11.406 19.906 426 100 100 42600 4260000
734	20492444 11502 556780 970747 11.40600013 19.90600013 426 100 100 42600 4260000
735	20503946 11076 556780 970747 11.40600013 19.90600013 426 93 93 39618 3684474
736	20515022 1896 556548 974122 11.4 20 87 23360 58400 5045760 293853849600
737	20516918 1896 556548 974122 11.4 20 87 23360 58400 5045760 293853849600
738	20518814 1982 556596 974122 11.4 20 87 40400 187600 16174000 3028295520000
739	20520796 1982 556596 974122 11.4 20 87 40400 187600 16174000 3028295520000
740	20522778 1982 556600 974122 11.4 20 87 40400 187600 16174000 3028295520000
741	20524760 1982 556600 974122 11.4 20 87 40400 187600 16174000 3028295520000
742	20526742 1895 556746 974122 11.4 20 87 7440 37200 3206640 119065593600
743	20528637 1895 556746 974122 11.4 20 87 7440 37200 3206640 119065593600
744	20530532 1896 556905 974122 11.4 20 87 11040 55200 4758240 262167321600
745	20532428 1896 556905 974122 11.4 20 87 11040 55200 4758240 262167321600
746	20534324 1892 557134 974122 11.4 20 87 0 44000 3784000 166496000000
747	20536216 1892 557134 974122 11.4 20 87 0 44000 3784000 166496000000
748	20538108 1896 557209 974122 11.4 20 87 12960 64800 5585760 361285401600
749	20540004 1896 557209 974122 11.4 20 87 12960 64800 5585760 361285401600
750	20541900 3461 974122 974122 0.1 20 200 0 0 0 0
751	20545361 3461 974122 974122 0.1 20 200 0 0 0 0
752	20548822 3461 974122 974122 0.1 20 200 0 0 0 0
753	20552283 3461 974122 974122 0.1 20 200 0 0 0 0
754	20555744 3461 974122 974122 0.1 20 200 0 0 0 0
755	20559205 3461 974122 974122 0.1 20 200 0 0 0 0
756	20562666 3461 974122 974122 0.1 20 200 0 0 0 0
757	20566127 3461 974122 974122 0.1 20 200 0 0 0 0
758	20569588 3461 974122 974122 0.1 20 200 0 0 0 0
759	20573049 3461 974122 974122 0.1 20 200 0 0 0 0
760	20576510 3461 974122 974122 0.1 20 200 0 0 0 0
761	20579971 3461 974122 974122 0.1 20 200 0 0 0 0
762	20583432 3461 974122 974122 0.1 20 200 0 0 0 0
763	20586893 3461 974122 974122 0.1 20 200 0 0 0 0
764	20590354 3461 974122 974122 0.1 20 200 0 0 0 0
765	20593815 3461 974122 974122 0.1 20 200 0 0 0 0
766	20597276 3461 974122 974122 0.1 20 200 0 0 0 0
767	20600737 3461 974122 974122 0.1 20 200 0 0 0 0
768	20604198 3461 974122 974122 0.1 20 200 0 0 0 0
769	20607659 3461 974122 974122 0.1 20 200 0 0 0 0
770	20611120 3461 974122 974122 0.1 20 200 0 0 0 0
771	20614581 3461 974122 974122 0.1 20 200 0 0 0 0
772	20618042 3465 974122 974122 0.1 20 200 0 35840 35840 1284505600
773	20621507 3465 974122 974122 0.1 20 200 0 35840 35840 1284505600
774	20624972 3465 974122 974122 0.1 20 200 0 39680 39680 1574502400
775	20628437 3465 974122 974122 0.1 20 200 0 39680 39680 1574502400
776	20631902 3465 974122 974122 0.1 20 200 0 40960 40960 1677721600
777	20635367 3465 974122 974122 0.1 20 200 0 40960 40960 1677721600
778	20638832 3461 974122 974122 0.1 20 200 0 0 0 0
779	20642293 3461 974122 974122 0.1 20 200 0 0 0 0
780	20645754 3461 974122 974122 0.1 20 200 0 0 0 0
781	20649215 3461 974122 974122 0.1 20 200 0 0 0 0
782	20652676 3465 974122 974122 0.1 20 200 0 38400 38400 1474560000
783	20656141 3465 974122 974122 0.1 20 200 0 38400 38400 1474560000
784	20659606 3465 974122 974122 0.1 20 200 0 38400 38400 1474560000
785	20663071 3465 974122 974122 0.1 20 200 0 38400 38400 1474560000
786	20666536 3465 974122 974122 0.1 20 200 0 38400 38400 1474560000
787	20670001 3465 974122 974122 0.1 20 200 0 38400 38400 1474560000
788	20673466 3461 974122 974122 0.1 20 200 0 0 0 0
789	20676927 3461 974122 974122 0.1 20 200 0 0 0 0
790	20680388 3461 974122 974122 0.1 20 200 0 0 0 0
791	20683849 3461 974122 974122 0.1 20 200 0 0 0 0
792	20687310 3461 974122 974122 0.1 20 200 0 0 0 0
793	20690771 3461 974122 974122 0.1 20 200 0 0 0 0
794	20694232 3465 974122 974122 0.1 20 200 0 35840 35840 1284505600
795	20697697 3465 974122 974122 0.1 20 200 0 35840 35840 1284505600
796	20701162 3465 974122 974122 0.1 20 200 0 35840 35840 1284505600
797	20704627 3465 974122 974122 0.1 20 200 0 35840 35840 1284505600
798	20708092 3465 974122 974122 0.1 20 200 0 35840 35840 1284505600
799	20711557 3465 974122 974122 0.1 20 200 0 35840 35840 1284505600
800	20715022 3461 974122 974122 0.1 20 200 0 0 0 0
801	20718483 3461 974122 974122 0.1 20 200 0 0 0 0
802	20721944 3465 974122 974122 0.1 20 200 0 43520 43520 1893990400
803	20725409 3465 974122 974122 0.1 20 200 0 43520 43520 1893990400
804	20728874 3461 974122 974122 0.1 20 200 0 0 0 0
805	20732335 3461 974122 974122 0.1 20 200 0 0 0 0
806	20735796 3465 974122 974122 0.1 20 200 0 38400 38400 1474560000
807	20739261 3465 974122 974122 0.1 20 200 0 38400 38400 1474560000
808	20742726 3465 974122 974122 0.1 20 200 0 38400 38400 1474560000
809	20746191 3465 974122 974122 0.1 20 200 0 38400 38400 1474560000
810	20749656 3461 974122 974122 0.1 20 200 0 0 0 0
811	20753117 3461 974122 974122 0.1 20 200 0 0 0 0
812	20756578 3461 974122 974122 0.1 20 200 0 0 0 0
813	20760039 3461 974122 974122 0.1 20 200 0 0 0 0
814	20763500 3465 974122 974122 0.1 20 200 0 46080 46080 2123366400
815	20766965 3465 974122 974122 0.1 20 200 0 46080 46080 2123366400
816	20770430 3465 974122 974122 0.1 20 200 0 42240 42240 1784217600
817	20773895 3465 974122 974122 0.1 20 200 0 42240 42240 1784217600
818	20777360 3465 974122 974122 0.1 20 200 0 42240 42240 1784217600
819	20780825 3465 974122 974122 0.1 20 200 0 42240 42240 1784217600
820	20784290 3465 974122 974122 0.1 20 200 0 42240 42240 1784217600
821	20787755 3465 974122 974122 0.1 20 200 0 42240 42240 1784217600
822	20791220 3465 974122 974122 0.1 20 200 0 42240 42240 1784217600
823	20794685 3465 974122 974122 0.1 20 200 0 42240 42240 1784217600
824	20798150 3465 974122 974122 0.1 20 200 0 42240 42240 1784217600
825	20801615 3465 974122 974122 0.1 20 200 0 42240 42240 1784217600
826	20805080 3465 974122 974122 0.1 20 200 0 42240 42240 1784217600
827	20808545 3465 974122 974122 0.1 20 200 0 42240 42240 1784217600
828	20812010 3465 974122 974122 0.1 20 200 0 42240 42240 1784217600
829	20815475 3465 974122 974122 0.1 20 200 0 42240 42240 1784217600
830	20818940 3461 974122 974122 0.1 20 200 0 0 0 0
831	20822401 3461 974122 974122 0.1 20 200 0 0 0 0
832	20825862 3461 974122 974122 0.1 20 200 0 0 0 0
833	20829323 3461 974122 974122 0.1 20 200 0 0 0 0
834	20832784 3461 974122 974122 0.1 20 200 0 0 0 0
835	20836245 3461 974122 974122 0.1 20 200 0 0 0 0
836	20839706 3465 974122 974122 0.1 20 200 0 38400 38400 1474560000
837	20843171 3465 974122 974122 0.1 20 200 0 38400 38400 1474560000
838	20846636 3465 974122 974122 0.1 20 200 0 38400 38400 1474560000
839	20850101 3465 974122 974122 0.1 20 200 0 38400 38400 1474560000
840	20853566 3465 974122 974122 0.1 20 200 0 38400 38400 1474560000
841	20857031 3465 974122 974122 0.1 20 200 0 38400 38400 1474560000
842	20860496 3461 974122 974122 0.1 20 200 0 0 0 0
843	20863957 3461 974122 974122 0.1 20 200 0 0 0 0
844	20867418 3461 974122 974122 0.1 20 200 0 0 0 0
845	20870879 3461 974122 974122 0.1 20 200 0 0 0 0
846	20874340 3465 974122 974122 0.1 20 200 0 35840 35840 1284505600
847	20877805 3465 974122 974122 0.1 20 200 0 35840 35840 1284505600
848	20881270 3465 974122 974122 0.1 20 200 0 35840 35840 1284505600
849	20884735 3465 974122 974122 0.1 20 200 0 35840 35840 1284505600
850	20888200 3465 974122 974122 0.1 20 200 0 35840 35840 1284505600
851	20891665 3465 974122 974122 0.1 20 200 0 35840 35840 1284505600
852	20895130 3461 974122 974122 0.1 20 200 0 0 0 0
853	20898591 3461 974122 974122 0.1 20 200 0 0 0 0
854	20902052 3461 974122 974122 0.1 20 200 0 0 0 0
855	20905513 3461 974122 974122 0.1 20 200 0 0 0 0
856	20908974 3461 974122 974122 0.1 20 200 0 0 0 0
857	20912435 3461 974122 974122 0.1 20 200 0 0 0 0
858	20915896 3465 974122 974122 0.1 20 200 0 38400 38400 1474560000
859	20919361 3465 974122 974122 0.1 20 200 0 38400 38400 1474560000
860	20922826 3461 974122 974122 0.1 20 200 0 0 0 0
861	20926287 3461 974122 974122 0.1 20 200 0 0 0 0
862	20929748 3465 974122 974122 0.1 20 200 0 38400 38400 1474560000
863	20933213 3465 974122 974122 0.1 20 200 0 38400 38400 1474560000
864	20936678 3465 974122 974122 0.1 20 200 0 38400 38400 1474560000
865	20940143 3465 974122 974122 0.1 20 200 0 38400 38400 1474560000
866	20943608 3461 974122 974122 0.1 20 200 0 0 0 0
867	20947069 3461 974122 974122 0.1 20 200 0 0 0 0
868	20950530 3461 974122 974122 0.1 20 200 0 0 0 0
869	20953991 3461 974122 974122 0.1 20 200 0 0 0 0
870	20957452 3465 974122 974122 0.1 20 200 0 35840 35840 1284505600
871	20960917 3465 974122 974122 0.1 20 200 0 35840 35840 1284505600
872	20964382 3465 974122 974122 0.1 20 200 0 35840 35840 1284505600
873	20967847 3465 974122 974122 0.1 20 200 0 35840 35840 1284505600
874	20971312 3465 974122 974122 0.1 20 200 0 35840 35840 1284505600
875	20974777 3465 974122 974122 0.1 20 200 0 35840 35840 1284505600
876	20978242 3461 974122 974122 0.1 20 200 0 0 0 0
877	20981703 3461 974122 974122 0.1 20 200 0 0 0 0
878	20985164 21 974122 974122 20 20 1 3681.5 3681.5 3681.5 13553442.25
879	20985185 21 974122 974122 20 20 1 4880.4 4880.4 4880.4 23818304.16
880	20985206 22 974122 974122 20 20 1 1442.75 1442.75 1442.75 2081527.5625
881	20985228 21 974122 974122 20 20 1 2288.5 2288.5 2288.5 5237232.25
882	20985249 21 974122 974122 20 20 1 4083.6 4083.6 4083.6 16675788.96

