file 20985271 1713493108                                        
version 3
run CBR-UL-0-20240419-03:18:02-124292
attr configname CBR-UL
attr datetime 20240419-03:18:02
attr datetimef 20240419-031802
attr experiment CBR-UL
attr inifile omnetpp.ini
attr iterationvars ""
attr iterationvarsd ""
attr iterationvarsf ""
attr measurement ""
attr network Eastleigh_5GNet
attr processid 124292
attr repetition 0
attr replication #0
attr resultdir results
attr runnumber 0
attr seedset 0
config image-path ../images:../../inet4.5/images:../../simu5g/images
config *.server.app[*].typename CbrReceiver
config *.server.app[*].localPort "3000 + ancestorIndex(0)"
config *.nrUe*.app[*].typename CbrSender
config *.nrUe*.app[*].PacketSize "int(uniform(20, 100))"
config *.nrUe*.app[*].sampling_time 0.02s
config *.nrUe*.app[*].destAddress "\"server\""
config *.nrUe*.app[*].destPort "3000 + ancestorIndex(0)"
config *.nrUe*.app[*].localPort "3088 + ancestorIndex(0)"
config *.nrUe*.app[*].startTime "uniform(0s, 0.02s)"
config *.nrUe*.app[*].finishTime "uniform(19.9s, 19.92s)"
config network Eastleigh_5GNet
config sim-time-limit 20s
config *.bgCell.*.isNr true
config *.bgCell.*.carrierFrequency 30GHz
config *.bgCell.*.numBands default
config *.bgCell.*.txPower default
config *.bgCell.*.fading_type default
config *.bgCell.*.scenario default
config *.bgCell.*.nodeb_height default
config *.bgCell.*.building_height 7
config *.carrierAggregation.numComponentCarriers default
config *.carrierAggregation.componentCarrier[0].carrierFrequency 30GHz
config *.carrierAggregation.componentCarrier[0].numerologyIndex default
config *.carrierAggregation.componentCarrier[0].numBands default
config **.eNodeBTxPower default
config *.gnb*.txPower default
config *.gnb*.cellularNic.channelModel[*].nodeb_height default
config *.gnb*.cellularNic.channelModel[*].building_height 7
config *.gnb*.*.channelModel[*].antennaGainEnB default
config *.gnb*.*.channelModel[*].antennaGainUe default
config *.gnb*.cellInfo.rbxDl 7
config *.gnb*.cellInfo.rbxUl 7
config **.ueTxPower default
config *.nrUe*.cellularNic.channelModel[*].nodeb_height default
config *.nrUe*.*.channelModel[*].building_height 7
config *.nrUe*.*.channelModel[*].antennaGainEnB default
config *.nrUe*.*.channelModel[*].antennaGainUe default
config *.nrUe*.macCellId 0
config *.nrUe*.masterId 0
config *.nrUe*.nrMacCellId 1
config *.nrUe*.nrMasterId 1
config **.dynamicCellAssociation true
config **.enableHandover true
config **.sctp.nagleEnabled false
config **.sctp.enableHeartbeats false
config **.mobility.constraintAreaMaxX 700m
config **.mobility.constraintAreaMaxY 700m
config **.mobility.constraintAreaMaxZ 0m
config **.mobility.constraintAreaMinX 0m
config **.mobility.constraintAreaMinY 0m
config **.mobility.constraintAreaMinZ 0m
config **.mobility.initFromDisplayString true
config *.gnb0.numX2Apps 3
config *.gnb1.numX2Apps 3
config *.gnb2.numX2Apps 3
config *.gnb3.numX2Apps 3
config *.gnb4.numX2Apps 8
config *.gnb5.numX2Apps 3
config *.gnb6.numX2Apps 3
config *.gnb7.numX2Apps 3
config *.gnb8.numX2Apps 3
config *.gnb*.x2App[*].server.localPort "5000 + ancestorIndex(1)"
config *.gnb0.x2App[0].client.connectAddress "\"gnb1%x2ppp1\""
config *.gnb0.x2App[1].client.connectAddress "\"gnb4%x2ppp0\""
config *.gnb0.x2App[2].client.connectAddress "\"gnb3%x2ppp1\""
config *.gnb1.x2App[0].client.connectAddress "\"gnb0%x2ppp1\""
config *.gnb1.x2App[1].client.connectAddress "\"gnb4%x2ppp1\""
config *.gnb1.x2App[2].client.connectAddress "\"gnb2%x2ppp1\""
config *.gnb2.x2App[0].client.connectAddress "\"gnb1%x2ppp2\""
config *.gnb2.x2App[1].client.connectAddress "\"gnb4%x2ppp2\""
config *.gnb2.x2App[2].client.connectAddress "\"gnb5%x2ppp1\""
config *.gnb3.x2App[0].client.connectAddress "\"gnb0%x2ppp2\""
config *.gnb3.x2App[1].client.connectAddress "\"gnb4%x2ppp3\""
config *.gnb3.x2App[2].client.connectAddress "\"gnb6%x2ppp1\""
config *.gnb4.x2App[0].client.connectAddress "\"gnb0%x2ppp0\""
config *.gnb4.x2App[1].client.connectAddress "\"gnb1%x2ppp0\""
config *.gnb4.x2App[2].client.connectAddress "\"gnb2%x2ppp0\""
config *.gnb4.x2App[3].client.connectAddress "\"gnb3%x2ppp0\""
config *.gnb4.x2App[4].client.connectAddress "\"gnb5%x2ppp0\""
config *.gnb4.x2App[5].client.connectAddress "\"gnb6%x2ppp0\""
config *.gnb4.x2App[6].client.connectAddress "\"gnb7%x2ppp0\""
config *.gnb4.x2App[7].client.connectAddress "\"gnb8%x2ppp0\""
config *.gnb5.x2App[0].client.connectAddress "\"gnb2%x2ppp2\""
config *.gnb5.x2App[1].client.connectAddress "\"gnb4%x2ppp4\""
config *.gnb5.x2App[2].client.connectAddress "\"gnb8%x2ppp1\""
config *.gnb6.x2App[0].client.connectAddress "\"gnb3%x2ppp2\""
config *.gnb6.x2App[1].client.connectAddress "\"gnb4%x2ppp5\""
config *.gnb6.x2App[2].client.connectAddress "\"gnb7%x2ppp1\""
config *.gnb7.x2App[0].client.connectAddress "\"gnb6%x2ppp2\""
config *.gnb7.x2App[1].client.connectAddress "\"gnb4%x2ppp6\""
config *.gnb7.x2App[2].client.connectAddress "\"gnb8%x2ppp2\""
config *.gnb8.x2App[0].client.connectAddress "\"gnb5%x2ppp2\""
config *.gnb8.x2App[1].client.connectAddress "\"gnb4%x2ppp7\""
config *.gnb8.x2App[2].client.connectAddress "\"gnb7%x2ppp2\""
config **.sctp.**.scalar-recording false
config **.sctp.**.vector-recording false
config *.nrUe*.numApps 1
config *.server.numApps 5

vector 0 Eastleigh_5GNet.server.ppp[0].queue queueLength:vector ETV
attr autoWarmupFilter false
attr interpolationmode sample-hold
attr recordingmode vector
attr source "warmup(atomic(constant0(packetPushEnded) + count(packetPushStarted) - count(packetPulled) - count(packetRemoved) - count(packetDropped)))"
attr title "queue length"
attr unit pk
vector 1 Eastleigh_5GNet.server.ppp[0].queue queueBitLength:vector ETV
attr autoWarmupFilter false
attr interpolationmode sample-hold
attr recordingmode vector
attr source "warmup(atomic(constant0(packetPushEnded) + sum(packetLength(packetPushStarted)) - sum(packetLength(packetPulled)) - sum(packetLength(packetRemoved)) - sum(packetLength(packetDropped))))"
attr title "queue bit length"
attr unit b
vector 2 Eastleigh_5GNet.server.ppp[0].ppp transmissionState:vector ETV
attr interpolationmode sample-hold
attr recordingmode vector
attr source transmissionStateChanged
attr title "tx state"
vector 3 Eastleigh_5GNet.server.udp passedUpPk:vector(count) ETV
attr interpolationmode none
attr recordingmode vector(count)
attr source packetSentToUpper
attr title "packets passed up, count"
vector 4 Eastleigh_5GNet.server.udp droppedPkWrongPort:vector(count) ETV
attr interpolationmode none
attr recordingmode vector(count)
attr source packetDropReasonIsNoPortFound(packetDropped)
attr title "packets dropped (wrong port), count"
vector 5 Eastleigh_5GNet.server.udp droppedPkBadChecksum:vector(count) ETV
attr interpolationmode none
attr recordingmode vector(count)
attr source packetDropReasonIsIncorrectlyReceived(packetDropped)
attr title "packets dropped (checksum error), count"
vector 6 Eastleigh_5GNet.router.ppp[0].queue queueLength:vector ETV
attr autoWarmupFilter false
attr interpolationmode sample-hold
attr recordingmode vector
attr source "warmup(atomic(constant0(packetPushEnded) + count(packetPushStarted) - count(packetPulled) - count(packetRemoved) - count(packetDropped)))"
attr title "queue length"
attr unit pk
vector 7 Eastleigh_5GNet.router.ppp[0].queue queueBitLength:vector ETV
attr autoWarmupFilter false
attr interpolationmode sample-hold
attr recordingmode vector
attr source "warmup(atomic(constant0(packetPushEnded) + sum(packetLength(packetPushStarted)) - sum(packetLength(packetPulled)) - sum(packetLength(packetRemoved)) - sum(packetLength(packetDropped))))"
attr title "queue bit length"
attr unit b
vector 8 Eastleigh_5GNet.router.ppp[0].ppp transmissionState:vector ETV
attr interpolationmode sample-hold
attr recordingmode vector
attr source transmissionStateChanged
attr title "tx state"
vector 9 Eastleigh_5GNet.router.ppp[1].queue queueLength:vector ETV
attr autoWarmupFilter false
attr interpolationmode sample-hold
attr recordingmode vector
attr source "warmup(atomic(constant0(packetPushEnded) + count(packetPushStarted) - count(packetPulled) - count(packetRemoved) - count(packetDropped)))"
attr title "queue length"
attr unit pk
vector 10 Eastleigh_5GNet.router.ppp[1].queue queueBitLength:vector ETV
attr autoWarmupFilter false
attr interpolationmode sample-hold
attr recordingmode vector
attr source "warmup(atomic(constant0(packetPushEnded) + sum(packetLength(packetPushStarted)) - sum(packetLength(packetPulled)) - sum(packetLength(packetRemoved)) - sum(packetLength(packetDropped))))"
attr title "queue bit length"
attr unit b
vector 11 Eastleigh_5GNet.router.ppp[1].ppp transmissionState:vector ETV
attr interpolationmode sample-hold
attr recordingmode vector
attr source transmissionStateChanged
attr title "tx state"
vector 12 Eastleigh_5GNet.upf.ppp[0].queue queueLength:vector ETV
attr autoWarmupFilter false
attr interpolationmode sample-hold
attr recordingmode vector
attr source "warmup(atomic(constant0(packetPushEnded) + count(packetPushStarted) - count(packetPulled) - count(packetRemoved) - count(packetDropped)))"
attr title "queue length"
attr unit pk
vector 13 Eastleigh_5GNet.upf.ppp[0].queue queueBitLength:vector ETV
attr autoWarmupFilter false
attr interpolationmode sample-hold
attr recordingmode vector
attr source "warmup(atomic(constant0(packetPushEnded) + sum(packetLength(packetPushStarted)) - sum(packetLength(packetPulled)) - sum(packetLength(packetRemoved)) - sum(packetLength(packetDropped))))"
attr title "queue bit length"
attr unit b
vector 14 Eastleigh_5GNet.upf.ppp[0].ppp transmissionState:vector ETV
attr interpolationmode sample-hold
attr recordingmode vector
attr source transmissionStateChanged
attr title "tx state"
vector 15 Eastleigh_5GNet.upf.ppp[1].queue queueLength:vector ETV
attr autoWarmupFilter false
attr interpolationmode sample-hold
attr recordingmode vector
attr source "warmup(atomic(constant0(packetPushEnded) + count(packetPushStarted) - count(packetPulled) - count(packetRemoved) - count(packetDropped)))"
attr title "queue length"
attr unit pk
vector 16 Eastleigh_5GNet.upf.ppp[1].queue queueBitLength:vector ETV
attr autoWarmupFilter false
attr interpolationmode sample-hold
attr recordingmode vector
attr source "warmup(atomic(constant0(packetPushEnded) + sum(packetLength(packetPushStarted)) - sum(packetLength(packetPulled)) - sum(packetLength(packetRemoved)) - sum(packetLength(packetDropped))))"
attr title "queue bit length"
attr unit b
vector 17 Eastleigh_5GNet.upf.ppp[1].ppp transmissionState:vector ETV
attr interpolationmode sample-hold
attr recordingmode vector
attr source transmissionStateChanged
attr title "tx state"
vector 18 Eastleigh_5GNet.upf.ppp[2].queue queueLength:vector ETV
attr autoWarmupFilter false
attr interpolationmode sample-hold
attr recordingmode vector
attr source "warmup(atomic(constant0(packetPushEnded) + count(packetPushStarted) - count(packetPulled) - count(packetRemoved) - count(packetDropped)))"
attr title "queue length"
attr unit pk
vector 19 Eastleigh_5GNet.upf.ppp[2].queue queueBitLength:vector ETV
attr autoWarmupFilter false
attr interpolationmode sample-hold
attr recordingmode vector
attr source "warmup(atomic(constant0(packetPushEnded) + sum(packetLength(packetPushStarted)) - sum(packetLength(packetPulled)) - sum(packetLength(packetRemoved)) - sum(packetLength(packetDropped))))"
attr title "queue bit length"
attr unit b
vector 20 Eastleigh_5GNet.upf.ppp[2].ppp transmissionState:vector ETV
attr interpolationmode sample-hold
attr recordingmode vector
attr source transmissionStateChanged
attr title "tx state"
vector 21 Eastleigh_5GNet.upf.ppp[3].queue queueLength:vector ETV
attr autoWarmupFilter false
attr interpolationmode sample-hold
attr recordingmode vector
attr source "warmup(atomic(constant0(packetPushEnded) + count(packetPushStarted) - count(packetPulled) - count(packetRemoved) - count(packetDropped)))"
attr title "queue length"
attr unit pk
vector 22 Eastleigh_5GNet.upf.ppp[3].queue queueBitLength:vector ETV
attr autoWarmupFilter false
attr interpolationmode sample-hold
attr recordingmode vector
attr source "warmup(atomic(constant0(packetPushEnded) + sum(packetLength(packetPushStarted)) - sum(packetLength(packetPulled)) - sum(packetLength(packetRemoved)) - sum(packetLength(packetDropped))))"
attr title "queue bit length"
attr unit b
vector 23 Eastleigh_5GNet.upf.ppp[3].ppp transmissionState:vector ETV
attr interpolationmode sample-hold
attr recordingmode vector
attr source transmissionStateChanged
attr title "tx state"
vector 24 Eastleigh_5GNet.upf.ppp[4].queue queueLength:vector ETV
attr autoWarmupFilter false
attr interpolationmode sample-hold
attr recordingmode vector
attr source "warmup(atomic(constant0(packetPushEnded) + count(packetPushStarted) - count(packetPulled) - count(packetRemoved) - count(packetDropped)))"
attr title "queue length"
attr unit pk
vector 25 Eastleigh_5GNet.upf.ppp[4].queue queueBitLength:vector ETV
attr autoWarmupFilter false
attr interpolationmode sample-hold
attr recordingmode vector
attr source "warmup(atomic(constant0(packetPushEnded) + sum(packetLength(packetPushStarted)) - sum(packetLength(packetPulled)) - sum(packetLength(packetRemoved)) - sum(packetLength(packetDropped))))"
attr title "queue bit length"
attr unit b
vector 26 Eastleigh_5GNet.upf.ppp[4].ppp transmissionState:vector ETV
attr interpolationmode sample-hold
attr recordingmode vector
attr source transmissionStateChanged
attr title "tx state"
vector 27 Eastleigh_5GNet.upf.ppp[5].queue queueLength:vector ETV
attr autoWarmupFilter false
attr interpolationmode sample-hold
attr recordingmode vector
attr source "warmup(atomic(constant0(packetPushEnded) + count(packetPushStarted) - count(packetPulled) - count(packetRemoved) - count(packetDropped)))"
attr title "queue length"
attr unit pk
vector 28 Eastleigh_5GNet.upf.ppp[5].queue queueBitLength:vector ETV
attr autoWarmupFilter false
attr interpolationmode sample-hold
attr recordingmode vector
attr source "warmup(atomic(constant0(packetPushEnded) + sum(packetLength(packetPushStarted)) - sum(packetLength(packetPulled)) - sum(packetLength(packetRemoved)) - sum(packetLength(packetDropped))))"
attr title "queue bit length"
attr unit b
vector 29 Eastleigh_5GNet.upf.ppp[5].ppp transmissionState:vector ETV
attr interpolationmode sample-hold
attr recordingmode vector
attr source transmissionStateChanged
attr title "tx state"
vector 30 Eastleigh_5GNet.upf.ppp[6].queue queueLength:vector ETV
attr autoWarmupFilter false
attr interpolationmode sample-hold
attr recordingmode vector
attr source "warmup(atomic(constant0(packetPushEnded) + count(packetPushStarted) - count(packetPulled) - count(packetRemoved) - count(packetDropped)))"
attr title "queue length"
attr unit pk
vector 31 Eastleigh_5GNet.upf.ppp[6].queue queueBitLength:vector ETV
attr autoWarmupFilter false
attr interpolationmode sample-hold
attr recordingmode vector
attr source "warmup(atomic(constant0(packetPushEnded) + sum(packetLength(packetPushStarted)) - sum(packetLength(packetPulled)) - sum(packetLength(packetRemoved)) - sum(packetLength(packetDropped))))"
attr title "queue bit length"
attr unit b
vector 32 Eastleigh_5GNet.upf.ppp[6].ppp transmissionState:vector ETV
attr interpolationmode sample-hold
attr recordingmode vector
attr source transmissionStateChanged
attr title "tx state"
vector 33 Eastleigh_5GNet.upf.ppp[7].queue queueLength:vector ETV
attr autoWarmupFilter false
attr interpolationmode sample-hold
attr recordingmode vector
attr source "warmup(atomic(constant0(packetPushEnded) + count(packetPushStarted) - count(packetPulled) - count(packetRemoved) - count(packetDropped)))"
attr title "queue length"
attr unit pk
vector 34 Eastleigh_5GNet.upf.ppp[7].queue queueBitLength:vector ETV
attr autoWarmupFilter false
attr interpolationmode sample-hold
attr recordingmode vector
attr source "warmup(atomic(constant0(packetPushEnded) + sum(packetLength(packetPushStarted)) - sum(packetLength(packetPulled)) - sum(packetLength(packetRemoved)) - sum(packetLength(packetDropped))))"
attr title "queue bit length"
attr unit b
vector 35 Eastleigh_5GNet.upf.ppp[7].ppp transmissionState:vector ETV
attr interpolationmode sample-hold
attr recordingmode vector
attr source transmissionStateChanged
attr title "tx state"
vector 36 Eastleigh_5GNet.upf.ppp[8].queue queueLength:vector ETV
attr autoWarmupFilter false
attr interpolationmode sample-hold
attr recordingmode vector
attr source "warmup(atomic(constant0(packetPushEnded) + count(packetPushStarted) - count(packetPulled) - count(packetRemoved) - count(packetDropped)))"
attr title "queue length"
attr unit pk
vector 37 Eastleigh_5GNet.upf.ppp[8].queue queueBitLength:vector ETV
attr autoWarmupFilter false
attr interpolationmode sample-hold
attr recordingmode vector
attr source "warmup(atomic(constant0(packetPushEnded) + sum(packetLength(packetPushStarted)) - sum(packetLength(packetPulled)) - sum(packetLength(packetRemoved)) - sum(packetLength(packetDropped))))"
attr title "queue bit length"
attr unit b
vector 38 Eastleigh_5GNet.upf.ppp[8].ppp transmissionState:vector ETV
attr interpolationmode sample-hold
attr recordingmode vector
attr source transmissionStateChanged
attr title "tx state"
vector 39 Eastleigh_5GNet.upf.pppIf.queue queueLength:vector ETV
attr autoWarmupFilter false
attr interpolationmode sample-hold
attr recordingmode vector
attr source "warmup(atomic(constant0(packetPushEnded) + count(packetPushStarted) - count(packetPulled) - count(packetRemoved) - count(packetDropped)))"
attr title "queue length"
attr unit pk
vector 40 Eastleigh_5GNet.upf.pppIf.queue queueBitLength:vector ETV
attr autoWarmupFilter false
attr interpolationmode sample-hold
attr recordingmode vector
attr source "warmup(atomic(constant0(packetPushEnded) + sum(packetLength(packetPushStarted)) - sum(packetLength(packetPulled)) - sum(packetLength(packetRemoved)) - sum(packetLength(packetDropped))))"
attr title "queue bit length"
attr unit b
vector 41 Eastleigh_5GNet.upf.pppIf.ppp transmissionState:vector ETV
attr interpolationmode sample-hold
attr recordingmode vector
attr source transmissionStateChanged
attr title "tx state"
vector 42 Eastleigh_5GNet.upf.udp passedUpPk:vector(count) ETV
attr interpolationmode none
attr recordingmode vector(count)
attr source packetSentToUpper
attr title "packets passed up, count"
vector 43 Eastleigh_5GNet.upf.udp droppedPkWrongPort:vector(count) ETV
attr interpolationmode none
attr recordingmode vector(count)
attr source packetDropReasonIsNoPortFound(packetDropped)
attr title "packets dropped (wrong port), count"
vector 44 Eastleigh_5GNet.upf.udp droppedPkBadChecksum:vector(count) ETV
attr interpolationmode none
attr recordingmode vector(count)
attr source packetDropReasonIsIncorrectlyReceived(packetDropped)
attr title "packets dropped (checksum error), count"
vector 45 Eastleigh_5GNet.gnb0.pppIf.queue queueLength:vector ETV
attr autoWarmupFilter false
attr interpolationmode sample-hold
attr recordingmode vector
attr source "warmup(atomic(constant0(packetPushEnded) + count(packetPushStarted) - count(packetPulled) - count(packetRemoved) - count(packetDropped)))"
attr title "queue length"
attr unit pk
vector 46 Eastleigh_5GNet.gnb0.pppIf.queue queueBitLength:vector ETV
attr autoWarmupFilter false
attr interpolationmode sample-hold
attr recordingmode vector
attr source "warmup(atomic(constant0(packetPushEnded) + sum(packetLength(packetPushStarted)) - sum(packetLength(packetPulled)) - sum(packetLength(packetRemoved)) - sum(packetLength(packetDropped))))"
attr title "queue bit length"
attr unit b
vector 47 Eastleigh_5GNet.gnb0.pppIf.ppp transmissionState:vector ETV
attr interpolationmode sample-hold
attr recordingmode vector
attr source transmissionStateChanged
attr title "tx state"
vector 48 Eastleigh_5GNet.gnb0.x2ppp[0].queue queueLength:vector ETV
attr autoWarmupFilter false
attr interpolationmode sample-hold
attr recordingmode vector
attr source "warmup(atomic(constant0(packetPushEnded) + count(packetPushStarted) - count(packetPulled) - count(packetRemoved) - count(packetDropped)))"
attr title "queue length"
attr unit pk
vector 49 Eastleigh_5GNet.gnb0.x2ppp[0].queue queueBitLength:vector ETV
attr autoWarmupFilter false
attr interpolationmode sample-hold
attr recordingmode vector
attr source "warmup(atomic(constant0(packetPushEnded) + sum(packetLength(packetPushStarted)) - sum(packetLength(packetPulled)) - sum(packetLength(packetRemoved)) - sum(packetLength(packetDropped))))"
attr title "queue bit length"
attr unit b
vector 50 Eastleigh_5GNet.gnb0.x2ppp[0].ppp transmissionState:vector ETV
attr interpolationmode sample-hold
attr recordingmode vector
attr source transmissionStateChanged
attr title "tx state"
vector 51 Eastleigh_5GNet.gnb0.x2ppp[1].queue queueLength:vector ETV
attr autoWarmupFilter false
attr interpolationmode sample-hold
attr recordingmode vector
attr source "warmup(atomic(constant0(packetPushEnded) + count(packetPushStarted) - count(packetPulled) - count(packetRemoved) - count(packetDropped)))"
attr title "queue length"
attr unit pk
vector 52 Eastleigh_5GNet.gnb0.x2ppp[1].queue queueBitLength:vector ETV
attr autoWarmupFilter false
attr interpolationmode sample-hold
attr recordingmode vector
attr source "warmup(atomic(constant0(packetPushEnded) + sum(packetLength(packetPushStarted)) - sum(packetLength(packetPulled)) - sum(packetLength(packetRemoved)) - sum(packetLength(packetDropped))))"
attr title "queue bit length"
attr unit b
vector 53 Eastleigh_5GNet.gnb0.x2ppp[1].ppp transmissionState:vector ETV
attr interpolationmode sample-hold
attr recordingmode vector
attr source transmissionStateChanged
attr title "tx state"
vector 54 Eastleigh_5GNet.gnb0.x2ppp[2].queue queueLength:vector ETV
attr autoWarmupFilter false
attr interpolationmode sample-hold
attr recordingmode vector
attr source "warmup(atomic(constant0(packetPushEnded) + count(packetPushStarted) - count(packetPulled) - count(packetRemoved) - count(packetDropped)))"
attr title "queue length"
attr unit pk
vector 55 Eastleigh_5GNet.gnb0.x2ppp[2].queue queueBitLength:vector ETV
attr autoWarmupFilter false
attr interpolationmode sample-hold
attr recordingmode vector
attr source "warmup(atomic(constant0(packetPushEnded) + sum(packetLength(packetPushStarted)) - sum(packetLength(packetPulled)) - sum(packetLength(packetRemoved)) - sum(packetLength(packetDropped))))"
attr title "queue bit length"
attr unit b
vector 56 Eastleigh_5GNet.gnb0.x2ppp[2].ppp transmissionState:vector ETV
attr interpolationmode sample-hold
attr recordingmode vector
attr source transmissionStateChanged
attr title "tx state"
vector 57 Eastleigh_5GNet.gnb0.pppMEHostIf.queue queueLength:vector ETV
attr autoWarmupFilter false
attr interpolationmode sample-hold
attr recordingmode vector
attr source "warmup(atomic(constant0(packetPushEnded) + count(packetPushStarted) - count(packetPulled) - count(packetRemoved) - count(packetDropped)))"
attr title "queue length"
attr unit pk
vector 58 Eastleigh_5GNet.gnb0.pppMEHostIf.queue queueBitLength:vector ETV
attr autoWarmupFilter false
attr interpolationmode sample-hold
attr recordingmode vector
attr source "warmup(atomic(constant0(packetPushEnded) + sum(packetLength(packetPushStarted)) - sum(packetLength(packetPulled)) - sum(packetLength(packetRemoved)) - sum(packetLength(packetDropped))))"
attr title "queue bit length"
attr unit b
vector 59 Eastleigh_5GNet.gnb0.pppMEHostIf.ppp transmissionState:vector ETV
attr interpolationmode sample-hold
attr recordingmode vector
attr source transmissionStateChanged
attr title "tx state"
vector 60 Eastleigh_5GNet.gnb0.udp passedUpPk:vector(count) ETV
attr interpolationmode none
attr recordingmode vector(count)
attr source packetSentToUpper
attr title "packets passed up, count"
vector 61 Eastleigh_5GNet.gnb0.udp droppedPkWrongPort:vector(count) ETV
attr interpolationmode none
attr recordingmode vector(count)
attr source packetDropReasonIsNoPortFound(packetDropped)
attr title "packets dropped (wrong port), count"
vector 62 Eastleigh_5GNet.gnb0.udp droppedPkBadChecksum:vector(count) ETV
attr interpolationmode none
attr recordingmode vector(count)
attr source packetDropReasonIsIncorrectlyReceived(packetDropped)
attr title "packets dropped (checksum error), count"
vector 63 Eastleigh_5GNet.gnb1.pppIf.queue queueLength:vector ETV
attr autoWarmupFilter false
attr interpolationmode sample-hold
attr recordingmode vector
attr source "warmup(atomic(constant0(packetPushEnded) + count(packetPushStarted) - count(packetPulled) - count(packetRemoved) - count(packetDropped)))"
attr title "queue length"
attr unit pk
vector 64 Eastleigh_5GNet.gnb1.pppIf.queue queueBitLength:vector ETV
attr autoWarmupFilter false
attr interpolationmode sample-hold
attr recordingmode vector
attr source "warmup(atomic(constant0(packetPushEnded) + sum(packetLength(packetPushStarted)) - sum(packetLength(packetPulled)) - sum(packetLength(packetRemoved)) - sum(packetLength(packetDropped))))"
attr title "queue bit length"
attr unit b
vector 65 Eastleigh_5GNet.gnb1.pppIf.ppp transmissionState:vector ETV
attr interpolationmode sample-hold
attr recordingmode vector
attr source transmissionStateChanged
attr title "tx state"
vector 66 Eastleigh_5GNet.gnb1.x2ppp[0].queue queueLength:vector ETV
attr autoWarmupFilter false
attr interpolationmode sample-hold
attr recordingmode vector
attr source "warmup(atomic(constant0(packetPushEnded) + count(packetPushStarted) - count(packetPulled) - count(packetRemoved) - count(packetDropped)))"
attr title "queue length"
attr unit pk
vector 67 Eastleigh_5GNet.gnb1.x2ppp[0].queue queueBitLength:vector ETV
attr autoWarmupFilter false
attr interpolationmode sample-hold
attr recordingmode vector
attr source "warmup(atomic(constant0(packetPushEnded) + sum(packetLength(packetPushStarted)) - sum(packetLength(packetPulled)) - sum(packetLength(packetRemoved)) - sum(packetLength(packetDropped))))"
attr title "queue bit length"
attr unit b
vector 68 Eastleigh_5GNet.gnb1.x2ppp[0].ppp transmissionState:vector ETV
attr interpolationmode sample-hold
attr recordingmode vector
attr source transmissionStateChanged
attr title "tx state"
vector 69 Eastleigh_5GNet.gnb1.x2ppp[1].queue queueLength:vector ETV
attr autoWarmupFilter false
attr interpolationmode sample-hold
attr recordingmode vector
attr source "warmup(atomic(constant0(packetPushEnded) + count(packetPushStarted) - count(packetPulled) - count(packetRemoved) - count(packetDropped)))"
attr title "queue length"
attr unit pk
vector 70 Eastleigh_5GNet.gnb1.x2ppp[1].queue queueBitLength:vector ETV
attr autoWarmupFilter false
attr interpolationmode sample-hold
attr recordingmode vector
attr source "warmup(atomic(constant0(packetPushEnded) + sum(packetLength(packetPushStarted)) - sum(packetLength(packetPulled)) - sum(packetLength(packetRemoved)) - sum(packetLength(packetDropped))))"
attr title "queue bit length"
attr unit b
vector 71 Eastleigh_5GNet.gnb1.x2ppp[1].ppp transmissionState:vector ETV
attr interpolationmode sample-hold
attr recordingmode vector
attr source transmissionStateChanged
attr title "tx state"
vector 72 Eastleigh_5GNet.gnb1.x2ppp[2].queue queueLength:vector ETV
attr autoWarmupFilter false
attr interpolationmode sample-hold
attr recordingmode vector
attr source "warmup(atomic(constant0(packetPushEnded) + count(packetPushStarted) - count(packetPulled) - count(packetRemoved) - count(packetDropped)))"
attr title "queue length"
attr unit pk
vector 73 Eastleigh_5GNet.gnb1.x2ppp[2].queue queueBitLength:vector ETV
attr autoWarmupFilter false
attr interpolationmode sample-hold
attr recordingmode vector
attr source "warmup(atomic(constant0(packetPushEnded) + sum(packetLength(packetPushStarted)) - sum(packetLength(packetPulled)) - sum(packetLength(packetRemoved)) - sum(packetLength(packetDropped))))"
attr title "queue bit length"
attr unit b
vector 74 Eastleigh_5GNet.gnb1.x2ppp[2].ppp transmissionState:vector ETV
attr interpolationmode sample-hold
attr recordingmode vector
attr source transmissionStateChanged
attr title "tx state"
vector 75 Eastleigh_5GNet.gnb1.x2ppp[3].queue queueLength:vector ETV
attr autoWarmupFilter false
attr interpolationmode sample-hold
attr recordingmode vector
attr source "warmup(atomic(constant0(packetPushEnded) + count(packetPushStarted) - count(packetPulled) - count(packetRemoved) - count(packetDropped)))"
attr title "queue length"
attr unit pk
vector 76 Eastleigh_5GNet.gnb1.x2ppp[3].queue queueBitLength:vector ETV
attr autoWarmupFilter false
attr interpolationmode sample-hold
attr recordingmode vector
attr source "warmup(atomic(constant0(packetPushEnded) + sum(packetLength(packetPushStarted)) - sum(packetLength(packetPulled)) - sum(packetLength(packetRemoved)) - sum(packetLength(packetDropped))))"
attr title "queue bit length"
attr unit b
vector 77 Eastleigh_5GNet.gnb1.x2ppp[3].ppp transmissionState:vector ETV
attr interpolationmode sample-hold
attr recordingmode vector
attr source transmissionStateChanged
attr title "tx state"
vector 78 Eastleigh_5GNet.gnb1.x2ppp[4].queue queueLength:vector ETV
attr autoWarmupFilter false
attr interpolationmode sample-hold
attr recordingmode vector
attr source "warmup(atomic(constant0(packetPushEnded) + count(packetPushStarted) - count(packetPulled) - count(packetRemoved) - count(packetDropped)))"
attr title "queue length"
attr unit pk
vector 79 Eastleigh_5GNet.gnb1.x2ppp[4].queue queueBitLength:vector ETV
attr autoWarmupFilter false
attr interpolationmode sample-hold
attr recordingmode vector
attr source "warmup(atomic(constant0(packetPushEnded) + sum(packetLength(packetPushStarted)) - sum(packetLength(packetPulled)) - sum(packetLength(packetRemoved)) - sum(packetLength(packetDropped))))"
attr title "queue bit length"
attr unit b
vector 80 Eastleigh_5GNet.gnb1.x2ppp[4].ppp transmissionState:vector ETV
attr interpolationmode sample-hold
attr recordingmode vector
attr source transmissionStateChanged
attr title "tx state"
vector 81 Eastleigh_5GNet.gnb1.pppMEHostIf.queue queueLength:vector ETV
attr autoWarmupFilter false
attr interpolationmode sample-hold
attr recordingmode vector
attr source "warmup(atomic(constant0(packetPushEnded) + count(packetPushStarted) - count(packetPulled) - count(packetRemoved) - count(packetDropped)))"
attr title "queue length"
attr unit pk
vector 82 Eastleigh_5GNet.gnb1.pppMEHostIf.queue queueBitLength:vector ETV
attr autoWarmupFilter false
attr interpolationmode sample-hold
attr recordingmode vector
attr source "warmup(atomic(constant0(packetPushEnded) + sum(packetLength(packetPushStarted)) - sum(packetLength(packetPulled)) - sum(packetLength(packetRemoved)) - sum(packetLength(packetDropped))))"
attr title "queue bit length"
attr unit b
vector 83 Eastleigh_5GNet.gnb1.pppMEHostIf.ppp transmissionState:vector ETV
attr interpolationmode sample-hold
attr recordingmode vector
attr source transmissionStateChanged
attr title "tx state"
vector 84 Eastleigh_5GNet.gnb1.udp passedUpPk:vector(count) ETV
attr interpolationmode none
attr recordingmode vector(count)
attr source packetSentToUpper
attr title "packets passed up, count"
vector 85 Eastleigh_5GNet.gnb1.udp droppedPkWrongPort:vector(count) ETV
attr interpolationmode none
attr recordingmode vector(count)
attr source packetDropReasonIsNoPortFound(packetDropped)
attr title "packets dropped (wrong port), count"
vector 86 Eastleigh_5GNet.gnb1.udp droppedPkBadChecksum:vector(count) ETV
attr interpolationmode none
attr recordingmode vector(count)
attr source packetDropReasonIsIncorrectlyReceived(packetDropped)
attr title "packets dropped (checksum error), count"
vector 87 Eastleigh_5GNet.gnb2.pppIf.queue queueLength:vector ETV
attr autoWarmupFilter false
attr interpolationmode sample-hold
attr recordingmode vector
attr source "warmup(atomic(constant0(packetPushEnded) + count(packetPushStarted) - count(packetPulled) - count(packetRemoved) - count(packetDropped)))"
attr title "queue length"
attr unit pk
vector 88 Eastleigh_5GNet.gnb2.pppIf.queue queueBitLength:vector ETV
attr autoWarmupFilter false
attr interpolationmode sample-hold
attr recordingmode vector
attr source "warmup(atomic(constant0(packetPushEnded) + sum(packetLength(packetPushStarted)) - sum(packetLength(packetPulled)) - sum(packetLength(packetRemoved)) - sum(packetLength(packetDropped))))"
attr title "queue bit length"
attr unit b
vector 89 Eastleigh_5GNet.gnb2.pppIf.ppp transmissionState:vector ETV
attr interpolationmode sample-hold
attr recordingmode vector
attr source transmissionStateChanged
attr title "tx state"
vector 90 Eastleigh_5GNet.gnb2.x2ppp[0].queue queueLength:vector ETV
attr autoWarmupFilter false
attr interpolationmode sample-hold
attr recordingmode vector
attr source "warmup(atomic(constant0(packetPushEnded) + count(packetPushStarted) - count(packetPulled) - count(packetRemoved) - count(packetDropped)))"
attr title "queue length"
attr unit pk
vector 91 Eastleigh_5GNet.gnb2.x2ppp[0].queue queueBitLength:vector ETV
attr autoWarmupFilter false
attr interpolationmode sample-hold
attr recordingmode vector
attr source "warmup(atomic(constant0(packetPushEnded) + sum(packetLength(packetPushStarted)) - sum(packetLength(packetPulled)) - sum(packetLength(packetRemoved)) - sum(packetLength(packetDropped))))"
attr title "queue bit length"
attr unit b
vector 92 Eastleigh_5GNet.gnb2.x2ppp[0].ppp transmissionState:vector ETV
attr interpolationmode sample-hold
attr recordingmode vector
attr source transmissionStateChanged
attr title "tx state"
vector 93 Eastleigh_5GNet.gnb2.x2ppp[1].queue queueLength:vector ETV
attr autoWarmupFilter false
attr interpolationmode sample-hold
attr recordingmode vector
attr source "warmup(atomic(constant0(packetPushEnded) + count(packetPushStarted) - count(packetPulled) - count(packetRemoved) - count(packetDropped)))"
attr title "queue length"
attr unit pk
vector 94 Eastleigh_5GNet.gnb2.x2ppp[1].queue queueBitLength:vector ETV
attr autoWarmupFilter false
attr interpolationmode sample-hold
attr recordingmode vector
attr source "warmup(atomic(constant0(packetPushEnded) + sum(packetLength(packetPushStarted)) - sum(packetLength(packetPulled)) - sum(packetLength(packetRemoved)) - sum(packetLength(packetDropped))))"
attr title "queue bit length"
attr unit b
vector 95 Eastleigh_5GNet.gnb2.x2ppp[1].ppp transmissionState:vector ETV
attr interpolationmode sample-hold
attr recordingmode vector
attr source transmissionStateChanged
attr title "tx state"
vector 96 Eastleigh_5GNet.gnb2.x2ppp[2].queue queueLength:vector ETV
attr autoWarmupFilter false
attr interpolationmode sample-hold
attr recordingmode vector
attr source "warmup(atomic(constant0(packetPushEnded) + count(packetPushStarted) - count(packetPulled) - count(packetRemoved) - count(packetDropped)))"
attr title "queue length"
attr unit pk
vector 97 Eastleigh_5GNet.gnb2.x2ppp[2].queue queueBitLength:vector ETV
attr autoWarmupFilter false
attr interpolationmode sample-hold
attr recordingmode vector
attr source "warmup(atomic(constant0(packetPushEnded) + sum(packetLength(packetPushStarted)) - sum(packetLength(packetPulled)) - sum(packetLength(packetRemoved)) - sum(packetLength(packetDropped))))"
attr title "queue bit length"
attr unit b
vector 98 Eastleigh_5GNet.gnb2.x2ppp[2].ppp transmissionState:vector ETV
attr interpolationmode sample-hold
attr recordingmode vector
attr source transmissionStateChanged
attr title "tx state"
vector 99 Eastleigh_5GNet.gnb2.pppMEHostIf.queue queueLength:vector ETV
attr autoWarmupFilter false
attr interpolationmode sample-hold
attr recordingmode vector
attr source "warmup(atomic(constant0(packetPushEnded) + count(packetPushStarted) - count(packetPulled) - count(packetRemoved) - count(packetDropped)))"
attr title "queue length"
attr unit pk
vector 100 Eastleigh_5GNet.gnb2.pppMEHostIf.queue queueBitLength:vector ETV
attr autoWarmupFilter false
attr interpolationmode sample-hold
attr recordingmode vector
attr source "warmup(atomic(constant0(packetPushEnded) + sum(packetLength(packetPushStarted)) - sum(packetLength(packetPulled)) - sum(packetLength(packetRemoved)) - sum(packetLength(packetDropped))))"
attr title "queue bit length"
attr unit b
vector 101 Eastleigh_5GNet.gnb2.pppMEHostIf.ppp transmissionState:vector ETV
attr interpolationmode sample-hold
attr recordingmode vector
attr source transmissionStateChanged
attr title "tx state"
vector 102 Eastleigh_5GNet.gnb2.udp passedUpPk:vector(count) ETV
attr interpolationmode none
attr recordingmode vector(count)
attr source packetSentToUpper
attr title "packets passed up, count"
vector 103 Eastleigh_5GNet.gnb2.udp droppedPkWrongPort:vector(count) ETV
attr interpolationmode none
attr recordingmode vector(count)
attr source packetDropReasonIsNoPortFound(packetDropped)
attr title "packets dropped (wrong port), count"
vector 104 Eastleigh_5GNet.gnb2.udp droppedPkBadChecksum:vector(count) ETV
attr interpolationmode none
attr recordingmode vector(count)
attr source packetDropReasonIsIncorrectlyReceived(packetDropped)
attr title "packets dropped (checksum error), count"
vector 105 Eastleigh_5GNet.gnb3.pppIf.queue queueLength:vector ETV
attr autoWarmupFilter false
attr interpolationmode sample-hold
attr recordingmode vector
attr source "warmup(atomic(constant0(packetPushEnded) + count(packetPushStarted) - count(packetPulled) - count(packetRemoved) - count(packetDropped)))"
attr title "queue length"
attr unit pk
vector 106 Eastleigh_5GNet.gnb3.pppIf.queue queueBitLength:vector ETV
attr autoWarmupFilter false
attr interpolationmode sample-hold
attr recordingmode vector
attr source "warmup(atomic(constant0(packetPushEnded) + sum(packetLength(packetPushStarted)) - sum(packetLength(packetPulled)) - sum(packetLength(packetRemoved)) - sum(packetLength(packetDropped))))"
attr title "queue bit length"
attr unit b
vector 107 Eastleigh_5GNet.gnb3.pppIf.ppp transmissionState:vector ETV
attr interpolationmode sample-hold
attr recordingmode vector
attr source transmissionStateChanged
attr title "tx state"
vector 108 Eastleigh_5GNet.gnb3.x2ppp[0].queue queueLength:vector ETV
attr autoWarmupFilter false
attr interpolationmode sample-hold
attr recordingmode vector
attr source "warmup(atomic(constant0(packetPushEnded) + count(packetPushStarted) - count(packetPulled) - count(packetRemoved) - count(packetDropped)))"
attr title "queue length"
attr unit pk
vector 109 Eastleigh_5GNet.gnb3.x2ppp[0].queue queueBitLength:vector ETV
attr autoWarmupFilter false
attr interpolationmode sample-hold
attr recordingmode vector
attr source "warmup(atomic(constant0(packetPushEnded) + sum(packetLength(packetPushStarted)) - sum(packetLength(packetPulled)) - sum(packetLength(packetRemoved)) - sum(packetLength(packetDropped))))"
attr title "queue bit length"
attr unit b
vector 110 Eastleigh_5GNet.gnb3.x2ppp[0].ppp transmissionState:vector ETV
attr interpolationmode sample-hold
attr recordingmode vector
attr source transmissionStateChanged
attr title "tx state"
vector 111 Eastleigh_5GNet.gnb3.x2ppp[1].queue queueLength:vector ETV
attr autoWarmupFilter false
attr interpolationmode sample-hold
attr recordingmode vector
attr source "warmup(atomic(constant0(packetPushEnded) + count(packetPushStarted) - count(packetPulled) - count(packetRemoved) - count(packetDropped)))"
attr title "queue length"
attr unit pk
vector 112 Eastleigh_5GNet.gnb3.x2ppp[1].queue queueBitLength:vector ETV
attr autoWarmupFilter false
attr interpolationmode sample-hold
attr recordingmode vector
attr source "warmup(atomic(constant0(packetPushEnded) + sum(packetLength(packetPushStarted)) - sum(packetLength(packetPulled)) - sum(packetLength(packetRemoved)) - sum(packetLength(packetDropped))))"
attr title "queue bit length"
attr unit b
vector 113 Eastleigh_5GNet.gnb3.x2ppp[1].ppp transmissionState:vector ETV
attr interpolationmode sample-hold
attr recordingmode vector
attr source transmissionStateChanged
attr title "tx state"
vector 114 Eastleigh_5GNet.gnb3.x2ppp[2].queue queueLength:vector ETV
attr autoWarmupFilter false
attr interpolationmode sample-hold
attr recordingmode vector
attr source "warmup(atomic(constant0(packetPushEnded) + count(packetPushStarted) - count(packetPulled) - count(packetRemoved) - count(packetDropped)))"
attr title "queue length"
attr unit pk
vector 115 Eastleigh_5GNet.gnb3.x2ppp[2].queue queueBitLength:vector ETV
attr autoWarmupFilter false
attr interpolationmode sample-hold
attr recordingmode vector
attr source "warmup(atomic(constant0(packetPushEnded) + sum(packetLength(packetPushStarted)) - sum(packetLength(packetPulled)) - sum(packetLength(packetRemoved)) - sum(packetLength(packetDropped))))"
attr title "queue bit length"
attr unit b
vector 116 Eastleigh_5GNet.gnb3.x2ppp[2].ppp transmissionState:vector ETV
attr interpolationmode sample-hold
attr recordingmode vector
attr source transmissionStateChanged
attr title "tx state"
vector 117 Eastleigh_5GNet.gnb3.x2ppp[3].queue queueLength:vector ETV
attr autoWarmupFilter false
attr interpolationmode sample-hold
attr recordingmode vector
attr source "warmup(atomic(constant0(packetPushEnded) + count(packetPushStarted) - count(packetPulled) - count(packetRemoved) - count(packetDropped)))"
attr title "queue length"
attr unit pk
vector 118 Eastleigh_5GNet.gnb3.x2ppp[3].queue queueBitLength:vector ETV
attr autoWarmupFilter false
attr interpolationmode sample-hold
attr recordingmode vector
attr source "warmup(atomic(constant0(packetPushEnded) + sum(packetLength(packetPushStarted)) - sum(packetLength(packetPulled)) - sum(packetLength(packetRemoved)) - sum(packetLength(packetDropped))))"
attr title "queue bit length"
attr unit b
vector 119 Eastleigh_5GNet.gnb3.x2ppp[3].ppp transmissionState:vector ETV
attr interpolationmode sample-hold
attr recordingmode vector
attr source transmissionStateChanged
attr title "tx state"
vector 120 Eastleigh_5GNet.gnb3.x2ppp[4].queue queueLength:vector ETV
attr autoWarmupFilter false
attr interpolationmode sample-hold
attr recordingmode vector
attr source "warmup(atomic(constant0(packetPushEnded) + count(packetPushStarted) - count(packetPulled) - count(packetRemoved) - count(packetDropped)))"
attr title "queue length"
attr unit pk
vector 121 Eastleigh_5GNet.gnb3.x2ppp[4].queue queueBitLength:vector ETV
attr autoWarmupFilter false
attr interpolationmode sample-hold
attr recordingmode vector
attr source "warmup(atomic(constant0(packetPushEnded) + sum(packetLength(packetPushStarted)) - sum(packetLength(packetPulled)) - sum(packetLength(packetRemoved)) - sum(packetLength(packetDropped))))"
attr title "queue bit length"
attr unit b
vector 122 Eastleigh_5GNet.gnb3.x2ppp[4].ppp transmissionState:vector ETV
attr interpolationmode sample-hold
attr recordingmode vector
attr source transmissionStateChanged
attr title "tx state"
vector 123 Eastleigh_5GNet.gnb3.pppMEHostIf.queue queueLength:vector ETV
attr autoWarmupFilter false
attr interpolationmode sample-hold
attr recordingmode vector
attr source "warmup(atomic(constant0(packetPushEnded) + count(packetPushStarted) - count(packetPulled) - count(packetRemoved) - count(packetDropped)))"
attr title "queue length"
attr unit pk
vector 124 Eastleigh_5GNet.gnb3.pppMEHostIf.queue queueBitLength:vector ETV
attr autoWarmupFilter false
attr interpolationmode sample-hold
attr recordingmode vector
attr source "warmup(atomic(constant0(packetPushEnded) + sum(packetLength(packetPushStarted)) - sum(packetLength(packetPulled)) - sum(packetLength(packetRemoved)) - sum(packetLength(packetDropped))))"
attr title "queue bit length"
attr unit b
vector 125 Eastleigh_5GNet.gnb3.pppMEHostIf.ppp transmissionState:vector ETV
attr interpolationmode sample-hold
attr recordingmode vector
attr source transmissionStateChanged
attr title "tx state"
vector 126 Eastleigh_5GNet.gnb3.udp passedUpPk:vector(count) ETV
attr interpolationmode none
attr recordingmode vector(count)
attr source packetSentToUpper
attr title "packets passed up, count"
vector 127 Eastleigh_5GNet.gnb3.udp droppedPkWrongPort:vector(count) ETV
attr interpolationmode none
attr recordingmode vector(count)
attr source packetDropReasonIsNoPortFound(packetDropped)
attr title "packets dropped (wrong port), count"
vector 128 Eastleigh_5GNet.gnb3.udp droppedPkBadChecksum:vector(count) ETV
attr interpolationmode none
attr recordingmode vector(count)
attr source packetDropReasonIsIncorrectlyReceived(packetDropped)
attr title "packets dropped (checksum error), count"
vector 129 Eastleigh_5GNet.gnb4.pppIf.queue queueLength:vector ETV
attr autoWarmupFilter false
attr interpolationmode sample-hold
attr recordingmode vector
attr source "warmup(atomic(constant0(packetPushEnded) + count(packetPushStarted) - count(packetPulled) - count(packetRemoved) - count(packetDropped)))"
attr title "queue length"
attr unit pk
vector 130 Eastleigh_5GNet.gnb4.pppIf.queue queueBitLength:vector ETV
attr autoWarmupFilter false
attr interpolationmode sample-hold
attr recordingmode vector
attr source "warmup(atomic(constant0(packetPushEnded) + sum(packetLength(packetPushStarted)) - sum(packetLength(packetPulled)) - sum(packetLength(packetRemoved)) - sum(packetLength(packetDropped))))"
attr title "queue bit length"
attr unit b
vector 131 Eastleigh_5GNet.gnb4.pppIf.ppp transmissionState:vector ETV
attr interpolationmode sample-hold
attr recordingmode vector
attr source transmissionStateChanged
attr title "tx state"
vector 132 Eastleigh_5GNet.gnb4.x2ppp[0].queue queueLength:vector ETV
attr autoWarmupFilter false
attr interpolationmode sample-hold
attr recordingmode vector
attr source "warmup(atomic(constant0(packetPushEnded) + count(packetPushStarted) - count(packetPulled) - count(packetRemoved) - count(packetDropped)))"
attr title "queue length"
attr unit pk
vector 133 Eastleigh_5GNet.gnb4.x2ppp[0].queue queueBitLength:vector ETV
attr autoWarmupFilter false
attr interpolationmode sample-hold
attr recordingmode vector
attr source "warmup(atomic(constant0(packetPushEnded) + sum(packetLength(packetPushStarted)) - sum(packetLength(packetPulled)) - sum(packetLength(packetRemoved)) - sum(packetLength(packetDropped))))"
attr title "queue bit length"
attr unit b
vector 134 Eastleigh_5GNet.gnb4.x2ppp[0].ppp transmissionState:vector ETV
attr interpolationmode sample-hold
attr recordingmode vector
attr source transmissionStateChanged
attr title "tx state"
vector 135 Eastleigh_5GNet.gnb4.x2ppp[1].queue queueLength:vector ETV
attr autoWarmupFilter false
attr interpolationmode sample-hold
attr recordingmode vector
attr source "warmup(atomic(constant0(packetPushEnded) + count(packetPushStarted) - count(packetPulled) - count(packetRemoved) - count(packetDropped)))"
attr title "queue length"
attr unit pk
vector 136 Eastleigh_5GNet.gnb4.x2ppp[1].queue queueBitLength:vector ETV
attr autoWarmupFilter false
attr interpolationmode sample-hold
attr recordingmode vector
attr source "warmup(atomic(constant0(packetPushEnded) + sum(packetLength(packetPushStarted)) - sum(packetLength(packetPulled)) - sum(packetLength(packetRemoved)) - sum(packetLength(packetDropped))))"
attr title "queue bit length"
attr unit b
vector 137 Eastleigh_5GNet.gnb4.x2ppp[1].ppp transmissionState:vector ETV
attr interpolationmode sample-hold
attr recordingmode vector
attr source transmissionStateChanged
attr title "tx state"
vector 138 Eastleigh_5GNet.gnb4.x2ppp[2].queue queueLength:vector ETV
attr autoWarmupFilter false
attr interpolationmode sample-hold
attr recordingmode vector
attr source "warmup(atomic(constant0(packetPushEnded) + count(packetPushStarted) - count(packetPulled) - count(packetRemoved) - count(packetDropped)))"
attr title "queue length"
attr unit pk
vector 139 Eastleigh_5GNet.gnb4.x2ppp[2].queue queueBitLength:vector ETV
attr autoWarmupFilter false
attr interpolationmode sample-hold
attr recordingmode vector
attr source "warmup(atomic(constant0(packetPushEnded) + sum(packetLength(packetPushStarted)) - sum(packetLength(packetPulled)) - sum(packetLength(packetRemoved)) - sum(packetLength(packetDropped))))"
attr title "queue bit length"
attr unit b
vector 140 Eastleigh_5GNet.gnb4.x2ppp[2].ppp transmissionState:vector ETV
attr interpolationmode sample-hold
attr recordingmode vector
attr source transmissionStateChanged
attr title "tx state"
vector 141 Eastleigh_5GNet.gnb4.x2ppp[3].queue queueLength:vector ETV
attr autoWarmupFilter false
attr interpolationmode sample-hold
attr recordingmode vector
attr source "warmup(atomic(constant0(packetPushEnded) + count(packetPushStarted) - count(packetPulled) - count(packetRemoved) - count(packetDropped)))"
attr title "queue length"
attr unit pk
vector 142 Eastleigh_5GNet.gnb4.x2ppp[3].queue queueBitLength:vector ETV
attr autoWarmupFilter false
attr interpolationmode sample-hold
attr recordingmode vector
attr source "warmup(atomic(constant0(packetPushEnded) + sum(packetLength(packetPushStarted)) - sum(packetLength(packetPulled)) - sum(packetLength(packetRemoved)) - sum(packetLength(packetDropped))))"
attr title "queue bit length"
attr unit b
vector 143 Eastleigh_5GNet.gnb4.x2ppp[3].ppp transmissionState:vector ETV
attr interpolationmode sample-hold
attr recordingmode vector
attr source transmissionStateChanged
attr title "tx state"
vector 144 Eastleigh_5GNet.gnb4.x2ppp[4].queue queueLength:vector ETV
attr autoWarmupFilter false
attr interpolationmode sample-hold
attr recordingmode vector
attr source "warmup(atomic(constant0(packetPushEnded) + count(packetPushStarted) - count(packetPulled) - count(packetRemoved) - count(packetDropped)))"
attr title "queue length"
attr unit pk
vector 145 Eastleigh_5GNet.gnb4.x2ppp[4].queue queueBitLength:vector ETV
attr autoWarmupFilter false
attr interpolationmode sample-hold
attr recordingmode vector
attr source "warmup(atomic(constant0(packetPushEnded) + sum(packetLength(packetPushStarted)) - sum(packetLength(packetPulled)) - sum(packetLength(packetRemoved)) - sum(packetLength(packetDropped))))"
attr title "queue bit length"
attr unit b
vector 146 Eastleigh_5GNet.gnb4.x2ppp[4].ppp transmissionState:vector ETV
attr interpolationmode sample-hold
attr recordingmode vector
attr source transmissionStateChanged
attr title "tx state"
vector 147 Eastleigh_5GNet.gnb4.x2ppp[5].queue queueLength:vector ETV
attr autoWarmupFilter false
attr interpolationmode sample-hold
attr recordingmode vector
attr source "warmup(atomic(constant0(packetPushEnded) + count(packetPushStarted) - count(packetPulled) - count(packetRemoved) - count(packetDropped)))"
attr title "queue length"
attr unit pk
vector 148 Eastleigh_5GNet.gnb4.x2ppp[5].queue queueBitLength:vector ETV
attr autoWarmupFilter false
attr interpolationmode sample-hold
attr recordingmode vector
attr source "warmup(atomic(constant0(packetPushEnded) + sum(packetLength(packetPushStarted)) - sum(packetLength(packetPulled)) - sum(packetLength(packetRemoved)) - sum(packetLength(packetDropped))))"
attr title "queue bit length"
attr unit b
vector 149 Eastleigh_5GNet.gnb4.x2ppp[5].ppp transmissionState:vector ETV
attr interpolationmode sample-hold
attr recordingmode vector
attr source transmissionStateChanged
attr title "tx state"
vector 150 Eastleigh_5GNet.gnb4.x2ppp[6].queue queueLength:vector ETV
attr autoWarmupFilter false
attr interpolationmode sample-hold
attr recordingmode vector
attr source "warmup(atomic(constant0(packetPushEnded) + count(packetPushStarted) - count(packetPulled) - count(packetRemoved) - count(packetDropped)))"
attr title "queue length"
attr unit pk
vector 151 Eastleigh_5GNet.gnb4.x2ppp[6].queue queueBitLength:vector ETV
attr autoWarmupFilter false
attr interpolationmode sample-hold
attr recordingmode vector
attr source "warmup(atomic(constant0(packetPushEnded) + sum(packetLength(packetPushStarted)) - sum(packetLength(packetPulled)) - sum(packetLength(packetRemoved)) - sum(packetLength(packetDropped))))"
attr title "queue bit length"
attr unit b
vector 152 Eastleigh_5GNet.gnb4.x2ppp[6].ppp transmissionState:vector ETV
attr interpolationmode sample-hold
attr recordingmode vector
attr source transmissionStateChanged
attr title "tx state"
vector 153 Eastleigh_5GNet.gnb4.x2ppp[7].queue queueLength:vector ETV
attr autoWarmupFilter false
attr interpolationmode sample-hold
attr recordingmode vector
attr source "warmup(atomic(constant0(packetPushEnded) + count(packetPushStarted) - count(packetPulled) - count(packetRemoved) - count(packetDropped)))"
attr title "queue length"
attr unit pk
vector 154 Eastleigh_5GNet.gnb4.x2ppp[7].queue queueBitLength:vector ETV
attr autoWarmupFilter false
attr interpolationmode sample-hold
attr recordingmode vector
attr source "warmup(atomic(constant0(packetPushEnded) + sum(packetLength(packetPushStarted)) - sum(packetLength(packetPulled)) - sum(packetLength(packetRemoved)) - sum(packetLength(packetDropped))))"
attr title "queue bit length"
attr unit b
vector 155 Eastleigh_5GNet.gnb4.x2ppp[7].ppp transmissionState:vector ETV
attr interpolationmode sample-hold
attr recordingmode vector
attr source transmissionStateChanged
attr title "tx state"
vector 156 Eastleigh_5GNet.gnb4.pppMEHostIf.queue queueLength:vector ETV
attr autoWarmupFilter false
attr interpolationmode sample-hold
attr recordingmode vector
attr source "warmup(atomic(constant0(packetPushEnded) + count(packetPushStarted) - count(packetPulled) - count(packetRemoved) - count(packetDropped)))"
attr title "queue length"
attr unit pk
vector 157 Eastleigh_5GNet.gnb4.pppMEHostIf.queue queueBitLength:vector ETV
attr autoWarmupFilter false
attr interpolationmode sample-hold
attr recordingmode vector
attr source "warmup(atomic(constant0(packetPushEnded) + sum(packetLength(packetPushStarted)) - sum(packetLength(packetPulled)) - sum(packetLength(packetRemoved)) - sum(packetLength(packetDropped))))"
attr title "queue bit length"
attr unit b
vector 158 Eastleigh_5GNet.gnb4.pppMEHostIf.ppp transmissionState:vector ETV
attr interpolationmode sample-hold
attr recordingmode vector
attr source transmissionStateChanged
attr title "tx state"
vector 159 Eastleigh_5GNet.gnb4.udp passedUpPk:vector(count) ETV
attr interpolationmode none
attr recordingmode vector(count)
attr source packetSentToUpper
attr title "packets passed up, count"
vector 160 Eastleigh_5GNet.gnb4.udp droppedPkWrongPort:vector(count) ETV
attr interpolationmode none
attr recordingmode vector(count)
attr source packetDropReasonIsNoPortFound(packetDropped)
attr title "packets dropped (wrong port), count"
vector 161 Eastleigh_5GNet.gnb4.udp droppedPkBadChecksum:vector(count) ETV
attr interpolationmode none
attr recordingmode vector(count)
attr source packetDropReasonIsIncorrectlyReceived(packetDropped)
attr title "packets dropped (checksum error), count"
vector 162 Eastleigh_5GNet.gnb5.pppIf.queue queueLength:vector ETV
attr autoWarmupFilter false
attr interpolationmode sample-hold
attr recordingmode vector
attr source "warmup(atomic(constant0(packetPushEnded) + count(packetPushStarted) - count(packetPulled) - count(packetRemoved) - count(packetDropped)))"
attr title "queue length"
attr unit pk
vector 163 Eastleigh_5GNet.gnb5.pppIf.queue queueBitLength:vector ETV
attr autoWarmupFilter false
attr interpolationmode sample-hold
attr recordingmode vector
attr source "warmup(atomic(constant0(packetPushEnded) + sum(packetLength(packetPushStarted)) - sum(packetLength(packetPulled)) - sum(packetLength(packetRemoved)) - sum(packetLength(packetDropped))))"
attr title "queue bit length"
attr unit b
vector 164 Eastleigh_5GNet.gnb5.pppIf.ppp transmissionState:vector ETV
attr interpolationmode sample-hold
attr recordingmode vector
attr source transmissionStateChanged
attr title "tx state"
vector 165 Eastleigh_5GNet.gnb5.x2ppp[0].queue queueLength:vector ETV
attr autoWarmupFilter false
attr interpolationmode sample-hold
attr recordingmode vector
attr source "warmup(atomic(constant0(packetPushEnded) + count(packetPushStarted) - count(packetPulled) - count(packetRemoved) - count(packetDropped)))"
attr title "queue length"
attr unit pk
vector 166 Eastleigh_5GNet.gnb5.x2ppp[0].queue queueBitLength:vector ETV
attr autoWarmupFilter false
attr interpolationmode sample-hold
attr recordingmode vector
attr source "warmup(atomic(constant0(packetPushEnded) + sum(packetLength(packetPushStarted)) - sum(packetLength(packetPulled)) - sum(packetLength(packetRemoved)) - sum(packetLength(packetDropped))))"
attr title "queue bit length"
attr unit b
vector 167 Eastleigh_5GNet.gnb5.x2ppp[0].ppp transmissionState:vector ETV
attr interpolationmode sample-hold
attr recordingmode vector
attr source transmissionStateChanged
attr title "tx state"
vector 168 Eastleigh_5GNet.gnb5.x2ppp[1].queue queueLength:vector ETV
attr autoWarmupFilter false
attr interpolationmode sample-hold
attr recordingmode vector
attr source "warmup(atomic(constant0(packetPushEnded) + count(packetPushStarted) - count(packetPulled) - count(packetRemoved) - count(packetDropped)))"
attr title "queue length"
attr unit pk
vector 169 Eastleigh_5GNet.gnb5.x2ppp[1].queue queueBitLength:vector ETV
attr autoWarmupFilter false
attr interpolationmode sample-hold
attr recordingmode vector
attr source "warmup(atomic(constant0(packetPushEnded) + sum(packetLength(packetPushStarted)) - sum(packetLength(packetPulled)) - sum(packetLength(packetRemoved)) - sum(packetLength(packetDropped))))"
attr title "queue bit length"
attr unit b
vector 170 Eastleigh_5GNet.gnb5.x2ppp[1].ppp transmissionState:vector ETV
attr interpolationmode sample-hold
attr recordingmode vector
attr source transmissionStateChanged
attr title "tx state"
vector 171 Eastleigh_5GNet.gnb5.x2ppp[2].queue queueLength:vector ETV
attr autoWarmupFilter false
attr interpolationmode sample-hold
attr recordingmode vector
attr source "warmup(atomic(constant0(packetPushEnded) + count(packetPushStarted) - count(packetPulled) - count(packetRemoved) - count(packetDropped)))"
attr title "queue length"
attr unit pk
vector 172 Eastleigh_5GNet.gnb5.x2ppp[2].queue queueBitLength:vector ETV
attr autoWarmupFilter false
attr interpolationmode sample-hold
attr recordingmode vector
attr source "warmup(atomic(constant0(packetPushEnded) + sum(packetLength(packetPushStarted)) - sum(packetLength(packetPulled)) - sum(packetLength(packetRemoved)) - sum(packetLength(packetDropped))))"
attr title "queue bit length"
attr unit b
vector 173 Eastleigh_5GNet.gnb5.x2ppp[2].ppp transmissionState:vector ETV
attr interpolationmode sample-hold
attr recordingmode vector
attr source transmissionStateChanged
attr title "tx state"
vector 174 Eastleigh_5GNet.gnb5.x2ppp[3].queue queueLength:vector ETV
attr autoWarmupFilter false
attr interpolationmode sample-hold
attr recordingmode vector
attr source "warmup(atomic(constant0(packetPushEnded) + count(packetPushStarted) - count(packetPulled) - count(packetRemoved) - count(packetDropped)))"
attr title "queue length"
attr unit pk
vector 175 Eastleigh_5GNet.gnb5.x2ppp[3].queue queueBitLength:vector ETV
attr autoWarmupFilter false
attr interpolationmode sample-hold
attr recordingmode vector
attr source "warmup(atomic(constant0(packetPushEnded) + sum(packetLength(packetPushStarted)) - sum(packetLength(packetPulled)) - sum(packetLength(packetRemoved)) - sum(packetLength(packetDropped))))"
attr title "queue bit length"
attr unit b
vector 176 Eastleigh_5GNet.gnb5.x2ppp[3].ppp transmissionState:vector ETV
attr interpolationmode sample-hold
attr recordingmode vector
attr source transmissionStateChanged
attr title "tx state"
vector 177 Eastleigh_5GNet.gnb5.x2ppp[4].queue queueLength:vector ETV
attr autoWarmupFilter false
attr interpolationmode sample-hold
attr recordingmode vector
attr source "warmup(atomic(constant0(packetPushEnded) + count(packetPushStarted) - count(packetPulled) - count(packetRemoved) - count(packetDropped)))"
attr title "queue length"
attr unit pk
vector 178 Eastleigh_5GNet.gnb5.x2ppp[4].queue queueBitLength:vector ETV
attr autoWarmupFilter false
attr interpolationmode sample-hold
attr recordingmode vector
attr source "warmup(atomic(constant0(packetPushEnded) + sum(packetLength(packetPushStarted)) - sum(packetLength(packetPulled)) - sum(packetLength(packetRemoved)) - sum(packetLength(packetDropped))))"
attr title "queue bit length"
attr unit b
vector 179 Eastleigh_5GNet.gnb5.x2ppp[4].ppp transmissionState:vector ETV
attr interpolationmode sample-hold
attr recordingmode vector
attr source transmissionStateChanged
attr title "tx state"
vector 180 Eastleigh_5GNet.gnb5.pppMEHostIf.queue queueLength:vector ETV
attr autoWarmupFilter false
attr interpolationmode sample-hold
attr recordingmode vector
attr source "warmup(atomic(constant0(packetPushEnded) + count(packetPushStarted) - count(packetPulled) - count(packetRemoved) - count(packetDropped)))"
attr title "queue length"
attr unit pk
vector 181 Eastleigh_5GNet.gnb5.pppMEHostIf.queue queueBitLength:vector ETV
attr autoWarmupFilter false
attr interpolationmode sample-hold
attr recordingmode vector
attr source "warmup(atomic(constant0(packetPushEnded) + sum(packetLength(packetPushStarted)) - sum(packetLength(packetPulled)) - sum(packetLength(packetRemoved)) - sum(packetLength(packetDropped))))"
attr title "queue bit length"
attr unit b
vector 182 Eastleigh_5GNet.gnb5.pppMEHostIf.ppp transmissionState:vector ETV
attr interpolationmode sample-hold
attr recordingmode vector
attr source transmissionStateChanged
attr title "tx state"
vector 183 Eastleigh_5GNet.gnb5.udp passedUpPk:vector(count) ETV
attr interpolationmode none
attr recordingmode vector(count)
attr source packetSentToUpper
attr title "packets passed up, count"
vector 184 Eastleigh_5GNet.gnb5.udp droppedPkWrongPort:vector(count) ETV
attr interpolationmode none
attr recordingmode vector(count)
attr source packetDropReasonIsNoPortFound(packetDropped)
attr title "packets dropped (wrong port), count"
vector 185 Eastleigh_5GNet.gnb5.udp droppedPkBadChecksum:vector(count) ETV
attr interpolationmode none
attr recordingmode vector(count)
attr source packetDropReasonIsIncorrectlyReceived(packetDropped)
attr title "packets dropped (checksum error), count"
vector 186 Eastleigh_5GNet.gnb6.pppIf.queue queueLength:vector ETV
attr autoWarmupFilter false
attr interpolationmode sample-hold
attr recordingmode vector
attr source "warmup(atomic(constant0(packetPushEnded) + count(packetPushStarted) - count(packetPulled) - count(packetRemoved) - count(packetDropped)))"
attr title "queue length"
attr unit pk
vector 187 Eastleigh_5GNet.gnb6.pppIf.queue queueBitLength:vector ETV
attr autoWarmupFilter false
attr interpolationmode sample-hold
attr recordingmode vector
attr source "warmup(atomic(constant0(packetPushEnded) + sum(packetLength(packetPushStarted)) - sum(packetLength(packetPulled)) - sum(packetLength(packetRemoved)) - sum(packetLength(packetDropped))))"
attr title "queue bit length"
attr unit b
vector 188 Eastleigh_5GNet.gnb6.pppIf.ppp transmissionState:vector ETV
attr interpolationmode sample-hold
attr recordingmode vector
attr source transmissionStateChanged
attr title "tx state"
vector 189 Eastleigh_5GNet.gnb6.x2ppp[0].queue queueLength:vector ETV
attr autoWarmupFilter false
attr interpolationmode sample-hold
attr recordingmode vector
attr source "warmup(atomic(constant0(packetPushEnded) + count(packetPushStarted) - count(packetPulled) - count(packetRemoved) - count(packetDropped)))"
attr title "queue length"
attr unit pk
vector 190 Eastleigh_5GNet.gnb6.x2ppp[0].queue queueBitLength:vector ETV
attr autoWarmupFilter false
attr interpolationmode sample-hold
attr recordingmode vector
attr source "warmup(atomic(constant0(packetPushEnded) + sum(packetLength(packetPushStarted)) - sum(packetLength(packetPulled)) - sum(packetLength(packetRemoved)) - sum(packetLength(packetDropped))))"
attr title "queue bit length"
attr unit b
vector 191 Eastleigh_5GNet.gnb6.x2ppp[0].ppp transmissionState:vector ETV
attr interpolationmode sample-hold
attr recordingmode vector
attr source transmissionStateChanged
attr title "tx state"
vector 192 Eastleigh_5GNet.gnb6.x2ppp[1].queue queueLength:vector ETV
attr autoWarmupFilter false
attr interpolationmode sample-hold
attr recordingmode vector
attr source "warmup(atomic(constant0(packetPushEnded) + count(packetPushStarted) - count(packetPulled) - count(packetRemoved) - count(packetDropped)))"
attr title "queue length"
attr unit pk
vector 193 Eastleigh_5GNet.gnb6.x2ppp[1].queue queueBitLength:vector ETV
attr autoWarmupFilter false
attr interpolationmode sample-hold
attr recordingmode vector
attr source "warmup(atomic(constant0(packetPushEnded) + sum(packetLength(packetPushStarted)) - sum(packetLength(packetPulled)) - sum(packetLength(packetRemoved)) - sum(packetLength(packetDropped))))"
attr title "queue bit length"
attr unit b
vector 194 Eastleigh_5GNet.gnb6.x2ppp[1].ppp transmissionState:vector ETV
attr interpolationmode sample-hold
attr recordingmode vector
attr source transmissionStateChanged
attr title "tx state"
vector 195 Eastleigh_5GNet.gnb6.x2ppp[2].queue queueLength:vector ETV
attr autoWarmupFilter false
attr interpolationmode sample-hold
attr recordingmode vector
attr source "warmup(atomic(constant0(packetPushEnded) + count(packetPushStarted) - count(packetPulled) - count(packetRemoved) - count(packetDropped)))"
attr title "queue length"
attr unit pk
vector 196 Eastleigh_5GNet.gnb6.x2ppp[2].queue queueBitLength:vector ETV
attr autoWarmupFilter false
attr interpolationmode sample-hold
attr recordingmode vector
attr source "warmup(atomic(constant0(packetPushEnded) + sum(packetLength(packetPushStarted)) - sum(packetLength(packetPulled)) - sum(packetLength(packetRemoved)) - sum(packetLength(packetDropped))))"
attr title "queue bit length"
attr unit b
vector 197 Eastleigh_5GNet.gnb6.x2ppp[2].ppp transmissionState:vector ETV
attr interpolationmode sample-hold
attr recordingmode vector
attr source transmissionStateChanged
attr title "tx state"
vector 198 Eastleigh_5GNet.gnb6.pppMEHostIf.queue queueLength:vector ETV
attr autoWarmupFilter false
attr interpolationmode sample-hold
attr recordingmode vector
attr source "warmup(atomic(constant0(packetPushEnded) + count(packetPushStarted) - count(packetPulled) - count(packetRemoved) - count(packetDropped)))"
attr title "queue length"
attr unit pk
vector 199 Eastleigh_5GNet.gnb6.pppMEHostIf.queue queueBitLength:vector ETV
attr autoWarmupFilter false
attr interpolationmode sample-hold
attr recordingmode vector
attr source "warmup(atomic(constant0(packetPushEnded) + sum(packetLength(packetPushStarted)) - sum(packetLength(packetPulled)) - sum(packetLength(packetRemoved)) - sum(packetLength(packetDropped))))"
attr title "queue bit length"
attr unit b
vector 200 Eastleigh_5GNet.gnb6.pppMEHostIf.ppp transmissionState:vector ETV
attr interpolationmode sample-hold
attr recordingmode vector
attr source transmissionStateChanged
attr title "tx state"
vector 201 Eastleigh_5GNet.gnb6.udp passedUpPk:vector(count) ETV
attr interpolationmode none
attr recordingmode vector(count)
attr source packetSentToUpper
attr title "packets passed up, count"
vector 202 Eastleigh_5GNet.gnb6.udp droppedPkWrongPort:vector(count) ETV
attr interpolationmode none
attr recordingmode vector(count)
attr source packetDropReasonIsNoPortFound(packetDropped)
attr title "packets dropped (wrong port), count"
vector 203 Eastleigh_5GNet.gnb6.udp droppedPkBadChecksum:vector(count) ETV
attr interpolationmode none
attr recordingmode vector(count)
attr source packetDropReasonIsIncorrectlyReceived(packetDropped)
attr title "packets dropped (checksum error), count"
vector 204 Eastleigh_5GNet.gnb7.pppIf.queue queueLength:vector ETV
attr autoWarmupFilter false
attr interpolationmode sample-hold
attr recordingmode vector
attr source "warmup(atomic(constant0(packetPushEnded) + count(packetPushStarted) - count(packetPulled) - count(packetRemoved) - count(packetDropped)))"
attr title "queue length"
attr unit pk
vector 205 Eastleigh_5GNet.gnb7.pppIf.queue queueBitLength:vector ETV
attr autoWarmupFilter false
attr interpolationmode sample-hold
attr recordingmode vector
attr source "warmup(atomic(constant0(packetPushEnded) + sum(packetLength(packetPushStarted)) - sum(packetLength(packetPulled)) - sum(packetLength(packetRemoved)) - sum(packetLength(packetDropped))))"
attr title "queue bit length"
attr unit b
vector 206 Eastleigh_5GNet.gnb7.pppIf.ppp transmissionState:vector ETV
attr interpolationmode sample-hold
attr recordingmode vector
attr source transmissionStateChanged
attr title "tx state"
vector 207 Eastleigh_5GNet.gnb7.x2ppp[0].queue queueLength:vector ETV
attr autoWarmupFilter false
attr interpolationmode sample-hold
attr recordingmode vector
attr source "warmup(atomic(constant0(packetPushEnded) + count(packetPushStarted) - count(packetPulled) - count(packetRemoved) - count(packetDropped)))"
attr title "queue length"
attr unit pk
vector 208 Eastleigh_5GNet.gnb7.x2ppp[0].queue queueBitLength:vector ETV
attr autoWarmupFilter false
attr interpolationmode sample-hold
attr recordingmode vector
attr source "warmup(atomic(constant0(packetPushEnded) + sum(packetLength(packetPushStarted)) - sum(packetLength(packetPulled)) - sum(packetLength(packetRemoved)) - sum(packetLength(packetDropped))))"
attr title "queue bit length"
attr unit b
vector 209 Eastleigh_5GNet.gnb7.x2ppp[0].ppp transmissionState:vector ETV
attr interpolationmode sample-hold
attr recordingmode vector
attr source transmissionStateChanged
attr title "tx state"
vector 210 Eastleigh_5GNet.gnb7.x2ppp[1].queue queueLength:vector ETV
attr autoWarmupFilter false
attr interpolationmode sample-hold
attr recordingmode vector
attr source "warmup(atomic(constant0(packetPushEnded) + count(packetPushStarted) - count(packetPulled) - count(packetRemoved) - count(packetDropped)))"
attr title "queue length"
attr unit pk
vector 211 Eastleigh_5GNet.gnb7.x2ppp[1].queue queueBitLength:vector ETV
attr autoWarmupFilter false
attr interpolationmode sample-hold
attr recordingmode vector
attr source "warmup(atomic(constant0(packetPushEnded) + sum(packetLength(packetPushStarted)) - sum(packetLength(packetPulled)) - sum(packetLength(packetRemoved)) - sum(packetLength(packetDropped))))"
attr title "queue bit length"
attr unit b
vector 212 Eastleigh_5GNet.gnb7.x2ppp[1].ppp transmissionState:vector ETV
attr interpolationmode sample-hold
attr recordingmode vector
attr source transmissionStateChanged
attr title "tx state"
vector 213 Eastleigh_5GNet.gnb7.x2ppp[2].queue queueLength:vector ETV
attr autoWarmupFilter false
attr interpolationmode sample-hold
attr recordingmode vector
attr source "warmup(atomic(constant0(packetPushEnded) + count(packetPushStarted) - count(packetPulled) - count(packetRemoved) - count(packetDropped)))"
attr title "queue length"
attr unit pk
vector 214 Eastleigh_5GNet.gnb7.x2ppp[2].queue queueBitLength:vector ETV
attr autoWarmupFilter false
attr interpolationmode sample-hold
attr recordingmode vector
attr source "warmup(atomic(constant0(packetPushEnded) + sum(packetLength(packetPushStarted)) - sum(packetLength(packetPulled)) - sum(packetLength(packetRemoved)) - sum(packetLength(packetDropped))))"
attr title "queue bit length"
attr unit b
vector 215 Eastleigh_5GNet.gnb7.x2ppp[2].ppp transmissionState:vector ETV
attr interpolationmode sample-hold
attr recordingmode vector
attr source transmissionStateChanged
attr title "tx state"
vector 216 Eastleigh_5GNet.gnb7.x2ppp[3].queue queueLength:vector ETV
attr autoWarmupFilter false
attr interpolationmode sample-hold
attr recordingmode vector
attr source "warmup(atomic(constant0(packetPushEnded) + count(packetPushStarted) - count(packetPulled) - count(packetRemoved) - count(packetDropped)))"
attr title "queue length"
attr unit pk
vector 217 Eastleigh_5GNet.gnb7.x2ppp[3].queue queueBitLength:vector ETV
attr autoWarmupFilter false
attr interpolationmode sample-hold
attr recordingmode vector
attr source "warmup(atomic(constant0(packetPushEnded) + sum(packetLength(packetPushStarted)) - sum(packetLength(packetPulled)) - sum(packetLength(packetRemoved)) - sum(packetLength(packetDropped))))"
attr title "queue bit length"
attr unit b
vector 218 Eastleigh_5GNet.gnb7.x2ppp[3].ppp transmissionState:vector ETV
attr interpolationmode sample-hold
attr recordingmode vector
attr source transmissionStateChanged
attr title "tx state"
vector 219 Eastleigh_5GNet.gnb7.x2ppp[4].queue queueLength:vector ETV
attr autoWarmupFilter false
attr interpolationmode sample-hold
attr recordingmode vector
attr source "warmup(atomic(constant0(packetPushEnded) + count(packetPushStarted) - count(packetPulled) - count(packetRemoved) - count(packetDropped)))"
attr title "queue length"
attr unit pk
vector 220 Eastleigh_5GNet.gnb7.x2ppp[4].queue queueBitLength:vector ETV
attr autoWarmupFilter false
attr interpolationmode sample-hold
attr recordingmode vector
attr source "warmup(atomic(constant0(packetPushEnded) + sum(packetLength(packetPushStarted)) - sum(packetLength(packetPulled)) - sum(packetLength(packetRemoved)) - sum(packetLength(packetDropped))))"
attr title "queue bit length"
attr unit b
vector 221 Eastleigh_5GNet.gnb7.x2ppp[4].ppp transmissionState:vector ETV
attr interpolationmode sample-hold
attr recordingmode vector
attr source transmissionStateChanged
attr title "tx state"
vector 222 Eastleigh_5GNet.gnb7.pppMEHostIf.queue queueLength:vector ETV
attr autoWarmupFilter false
attr interpolationmode sample-hold
attr recordingmode vector
attr source "warmup(atomic(constant0(packetPushEnded) + count(packetPushStarted) - count(packetPulled) - count(packetRemoved) - count(packetDropped)))"
attr title "queue length"
attr unit pk
vector 223 Eastleigh_5GNet.gnb7.pppMEHostIf.queue queueBitLength:vector ETV
attr autoWarmupFilter false
attr interpolationmode sample-hold
attr recordingmode vector
attr source "warmup(atomic(constant0(packetPushEnded) + sum(packetLength(packetPushStarted)) - sum(packetLength(packetPulled)) - sum(packetLength(packetRemoved)) - sum(packetLength(packetDropped))))"
attr title "queue bit length"
attr unit b
vector 224 Eastleigh_5GNet.gnb7.pppMEHostIf.ppp transmissionState:vector ETV
attr interpolationmode sample-hold
attr recordingmode vector
attr source transmissionStateChanged
attr title "tx state"
vector 225 Eastleigh_5GNet.gnb7.udp passedUpPk:vector(count) ETV
attr interpolationmode none
attr recordingmode vector(count)
attr source packetSentToUpper
attr title "packets passed up, count"
vector 226 Eastleigh_5GNet.gnb7.udp droppedPkWrongPort:vector(count) ETV
attr interpolationmode none
attr recordingmode vector(count)
attr source packetDropReasonIsNoPortFound(packetDropped)
attr title "packets dropped (wrong port), count"
vector 227 Eastleigh_5GNet.gnb7.udp droppedPkBadChecksum:vector(count) ETV
attr interpolationmode none
attr recordingmode vector(count)
attr source packetDropReasonIsIncorrectlyReceived(packetDropped)
attr title "packets dropped (checksum error), count"
vector 228 Eastleigh_5GNet.gnb8.pppIf.queue queueLength:vector ETV
attr autoWarmupFilter false
attr interpolationmode sample-hold
attr recordingmode vector
attr source "warmup(atomic(constant0(packetPushEnded) + count(packetPushStarted) - count(packetPulled) - count(packetRemoved) - count(packetDropped)))"
attr title "queue length"
attr unit pk
vector 229 Eastleigh_5GNet.gnb8.pppIf.queue queueBitLength:vector ETV
attr autoWarmupFilter false
attr interpolationmode sample-hold
attr recordingmode vector
attr source "warmup(atomic(constant0(packetPushEnded) + sum(packetLength(packetPushStarted)) - sum(packetLength(packetPulled)) - sum(packetLength(packetRemoved)) - sum(packetLength(packetDropped))))"
attr title "queue bit length"
attr unit b
vector 230 Eastleigh_5GNet.gnb8.pppIf.ppp transmissionState:vector ETV
attr interpolationmode sample-hold
attr recordingmode vector
attr source transmissionStateChanged
attr title "tx state"
vector 231 Eastleigh_5GNet.gnb8.x2ppp[0].queue queueLength:vector ETV
attr autoWarmupFilter false
attr interpolationmode sample-hold
attr recordingmode vector
attr source "warmup(atomic(constant0(packetPushEnded) + count(packetPushStarted) - count(packetPulled) - count(packetRemoved) - count(packetDropped)))"
attr title "queue length"
attr unit pk
vector 232 Eastleigh_5GNet.gnb8.x2ppp[0].queue queueBitLength:vector ETV
attr autoWarmupFilter false
attr interpolationmode sample-hold
attr recordingmode vector
attr source "warmup(atomic(constant0(packetPushEnded) + sum(packetLength(packetPushStarted)) - sum(packetLength(packetPulled)) - sum(packetLength(packetRemoved)) - sum(packetLength(packetDropped))))"
attr title "queue bit length"
attr unit b
vector 233 Eastleigh_5GNet.gnb8.x2ppp[0].ppp transmissionState:vector ETV
attr interpolationmode sample-hold
attr recordingmode vector
attr source transmissionStateChanged
attr title "tx state"
vector 234 Eastleigh_5GNet.gnb8.x2ppp[1].queue queueLength:vector ETV
attr autoWarmupFilter false
attr interpolationmode sample-hold
attr recordingmode vector
attr source "warmup(atomic(constant0(packetPushEnded) + count(packetPushStarted) - count(packetPulled) - count(packetRemoved) - count(packetDropped)))"
attr title "queue length"
attr unit pk
vector 235 Eastleigh_5GNet.gnb8.x2ppp[1].queue queueBitLength:vector ETV
attr autoWarmupFilter false
attr interpolationmode sample-hold
attr recordingmode vector
attr source "warmup(atomic(constant0(packetPushEnded) + sum(packetLength(packetPushStarted)) - sum(packetLength(packetPulled)) - sum(packetLength(packetRemoved)) - sum(packetLength(packetDropped))))"
attr title "queue bit length"
attr unit b
vector 236 Eastleigh_5GNet.gnb8.x2ppp[1].ppp transmissionState:vector ETV
attr interpolationmode sample-hold
attr recordingmode vector
attr source transmissionStateChanged
attr title "tx state"
vector 237 Eastleigh_5GNet.gnb8.x2ppp[2].queue queueLength:vector ETV
attr autoWarmupFilter false
attr interpolationmode sample-hold
attr recordingmode vector
attr source "warmup(atomic(constant0(packetPushEnded) + count(packetPushStarted) - count(packetPulled) - count(packetRemoved) - count(packetDropped)))"
attr title "queue length"
attr unit pk
vector 238 Eastleigh_5GNet.gnb8.x2ppp[2].queue queueBitLength:vector ETV
attr autoWarmupFilter false
attr interpolationmode sample-hold
attr recordingmode vector
attr source "warmup(atomic(constant0(packetPushEnded) + sum(packetLength(packetPushStarted)) - sum(packetLength(packetPulled)) - sum(packetLength(packetRemoved)) - sum(packetLength(packetDropped))))"
attr title "queue bit length"
attr unit b
vector 239 Eastleigh_5GNet.gnb8.x2ppp[2].ppp transmissionState:vector ETV
attr interpolationmode sample-hold
attr recordingmode vector
attr source transmissionStateChanged
attr title "tx state"
vector 240 Eastleigh_5GNet.gnb8.pppMEHostIf.queue queueLength:vector ETV
attr autoWarmupFilter false
attr interpolationmode sample-hold
attr recordingmode vector
attr source "warmup(atomic(constant0(packetPushEnded) + count(packetPushStarted) - count(packetPulled) - count(packetRemoved) - count(packetDropped)))"
attr title "queue length"
attr unit pk
vector 241 Eastleigh_5GNet.gnb8.pppMEHostIf.queue queueBitLength:vector ETV
attr autoWarmupFilter false
attr interpolationmode sample-hold
attr recordingmode vector
attr source "warmup(atomic(constant0(packetPushEnded) + sum(packetLength(packetPushStarted)) - sum(packetLength(packetPulled)) - sum(packetLength(packetRemoved)) - sum(packetLength(packetDropped))))"
attr title "queue bit length"
attr unit b
vector 242 Eastleigh_5GNet.gnb8.pppMEHostIf.ppp transmissionState:vector ETV
attr interpolationmode sample-hold
attr recordingmode vector
attr source transmissionStateChanged
attr title "tx state"
vector 243 Eastleigh_5GNet.gnb8.udp passedUpPk:vector(count) ETV
attr interpolationmode none
attr recordingmode vector(count)
attr source packetSentToUpper
attr title "packets passed up, count"
vector 244 Eastleigh_5GNet.gnb8.udp droppedPkWrongPort:vector(count) ETV
attr interpolationmode none
attr recordingmode vector(count)
attr source packetDropReasonIsNoPortFound(packetDropped)
attr title "packets dropped (wrong port), count"
vector 245 Eastleigh_5GNet.gnb8.udp droppedPkBadChecksum:vector(count) ETV
attr interpolationmode none
attr recordingmode vector(count)
attr source packetDropReasonIsIncorrectlyReceived(packetDropped)
attr title "packets dropped (checksum error), count"
[...]
592	18061280 7308 632050 970133 12.954 19.894 348 75 75 26100 1957500
593	18068588 6960 632050 970133 12.954 19.894 348 0 0 0 0
594	18075548 7308 632051 970134 12.954 19.894 348 75 75 26100 1957500
595	18082856 7308 632051 970134 12.954 19.894 348 74 74 25752 1905648
596	18090164 7308 632055 970138 12.954 19.894 348 90 90 31320 2818800
597	18097472 7656 632057 970140 12.954 19.894 348 880 880 306240 269491200
598	18105128 6960 632057 970140 12.954 19.894 348 0 0 0 0
599	18112088 7656 632057 970140 12.954 19.894 348 880 880 306240 269491200
600	18119744 7656 632057 970140 12.954 19.894 348 110 110 38280 4210800
601	18127400 7656 632057 970140 12.954 19.894 348 117 117 40716 4763772
602	18135056 10092 632086 970169 12.9540001436 19.8940001436 348 117 117 40716 4763772
603	18145148 10092 632086 970169 12.9540001436 19.8940001436 348 110 110 38280 4210800
604	18155240 48778 632088 971414 12.9540001436 19.9220001724 1742 73 142 191320 22096804
605	18204018 49823 632090 971416 12.9540001436 19.9220001724 1742 456 1008 1307584 1050913024
606	18253841 45990 632090 971416 12.9540001436 19.9220001724 1742 0 0 0 0
607	18299831 49823 632090 971416 12.9540001436 19.9220001724 1742 456 1008 1307584 1050913024
608	18349654 48778 632090 971416 12.9540001436 19.9220001724 1742 57 126 163448 16420516
609	18398432 48778 632090 971416 12.9540001436 19.9220001724 1742 64 133 175642 18794146
610	18447210 49473 632092 971418 12.9540002584 19.922000316 1742 64 133 175642 18794146
611	18496683 49473 632092 971418 12.9540002584 19.922000316 1742 57 126 163448 16420516
612	18546156 50518 632094 971420 12.9540002584 19.922000316 1742 456 1008 1307584 1050913024
613	18596674 46685 632094 971420 12.9540002584 19.922000316 1742 0 0 0 0
614	18643359 50518 632094 971420 12.9540002584 19.922000316 1742 456 1008 1307584 1050913024
615	18693877 49473 632094 971420 12.9540002584 19.922000316 1742 57 126 163448 16420516
616	18743350 49502 631859 971420 12.9490003032 19.922000316 1743 64 133 175751 18806027
617	18792852 49502 631861 971422 12.9490004404 19.9220004596 1743 64 133 175751 18806027
618	18842354 49502 631861 971422 12.9490004404 19.9220004596 1743 57 126 163550 16430920
619	18891856 48804 631863 971424 12.9490004404 19.9220004596 1743 37 106 128690 10586120
620	18940660 48455 631864 971425 12.9490004404 19.9220004596 1743 29 98 114746 8638632
621	18989115 69371 631864 971425 12.9490004404 19.9220004596 1743 0.008640599429 0.014475574667 23.105074528509 0.31554773100392
622	19058486 50198 631864 971425 12.9490004404 19.9220004596 1743 646 995 1430306 1191360536
623	19108684 10440 632101 970184 12.954524865733 19.894524865733 348 82 82 28536 2339952
624	19119124 10788 632104 970187 12.954524865733 19.894524865733 348 102 102 35496 3620592
625	19129912 10788 632104 970187 12.954524865733 19.894524865733 348 103 103 35844 3691932
626	19140700 10788 632105 970188 12.954524865733 19.894524865733 348 103 103 35844 3691932
627	19151488 25056 632107 970676 12.954524865733 19.905 1044 8 105 73776 7269720
628	19176544 11812 632120 971102 12.955 19.915 349 6351.5942756716 6352.4507912003 2216834.634067 14081248716.644
629	19188356 6980 632120 971102 12.955 19.915 349 0 0 0 0
630	19195336 11517 632120 971102 12.955 19.915 349 0.014295603815 0.014295603815 4.989165731435 0.071323136663969
631	19206853 7678 632120 971102 12.955 19.915 349 127 127 44323 5629021
632	19214531 7678 632121 971103 12.955 19.915 349 127 127 44323 5629021
633	19222209 7678 632121 971103 12.955 19.915 349 126 126 43974 5540724
634	19229887 7678 632125 971107 12.955 19.915 349 142 142 49558 7037236
635	19237565 8027 632127 971109 12.955 19.915 349 1296 1296 452304 586185984
636	19245592 6980 632127 971109 12.955 19.915 349 0 0 0 0
637	19252572 8027 632127 971109 12.955 19.915 349 1296 1296 452304 586185984
638	19260599 7678 632127 971109 12.955 19.915 349 162 162 56538 9159156
639	19268277 7678 632127 971109 12.955 19.915 349 169 169 58981 9967789
640	19275955 21924 632134 970698 12.955 19.905 1044 1 101 38976 3585096
641	19297879 6960 632156 970234 12.955 19.895 348 0 0 0 0
642	19304839 6960 632156 970234 12.955 19.895 348 0 0 0 0
643	19311799 6960 632156 970234 12.955 19.895 348 1 1 348 348
644	19318759 10121 632158 971135 12.9550001852 19.9150001852 349 169 169 58981 9967789
645	19328880 10121 632158 971135 12.9550001852 19.9150001852 349 162 162 56538 9159156
646	19339001 16752 632177 971367 12.956 19.922 698 0.004 0.004 2.792 0.011168
647	19355753 14658 632177 971367 12.956 19.922 698 44 71 40135 2434973
648	19370411 14658 632181 971370 12.956 19.922 698 44 71 40135 2434973
649	19385069 13960 632181 971370 12.956 19.922 698 0 0 0 0
650	19399029 16752 632181 971370 12.956 19.922 698 0.004 0.004 2.792 0.011168
651	19415781 13960 632181 971370 12.956 19.922 698 0 0 0 0
652	19429741 34800 632224 970851 12.956 19.909 1740 1 1 1740 1740
653	19464541 13960 632257 971456 12.957 19.923 698 0 0 0 0
654	19478501 13960 632257 971456 12.957 19.923 698 0 0 0 0
655	19492461 13960 632257 971456 12.957 19.923 698 1 1 698 698
656	19506421 34471 631916 970946 12.95 19.91 1741 1 1 1741 1741
657	19540892 13920 632312 970672 12.959 19.905 696 1 1 696 696
658	19554812 20880 632314 970854 12.959 19.909 1044 0 0 0 0
659	19575692 14268 632314 970674 12.959 19.905 696 8 99 37236 3433020
660	19589960 14616 632335 970699 12.959 19.905 696 11 11 7656 84216
661	19604576 23232 632376 970742 12.96 19.906 696 25.969955837344 25.969955837344 18075.089262791 469409.26991073
662	19627808 11837 632433 971370 12.962 19.922 349 5549.1436506712 5549.4428270254 1936710.7527053 10747417021.594
663	19639645 6980 632433 971370 12.962 19.922 349 0 0 0 0
664	19646625 11517 632433 971370 12.962 19.922 349 0.014406671159 0.014406671159 5.027928234491 0.072435708685363
665	19658142 7678 632433 971370 12.962 19.922 349 111 111 38739 4300029
666	19665820 7678 632434 971371 12.962 19.922 349 111 111 38739 4300029
667	19673498 7678 632434 971371 12.962 19.922 349 110 110 38390 4222900
668	19681176 7678 632438 971375 12.962 19.922 349 126 126 43974 5540724
669	19688854 8027 632440 971377 12.962 19.922 349 1168 1168 407632 476114176
670	19696881 6980 632440 971377 12.962 19.922 349 0 0 0 0
671	19703861 8027 632440 971377 12.962 19.922 349 1168 1168 407632 476114176
672	19711888 7678 632440 971377 12.962 19.922 349 146 146 50954 7439284
673	19719566 7678 632440 971377 12.962 19.922 349 153 153 53397 8169741
674	19727244 10121 632484 971412 12.9620001724 19.9220001724 349 153 153 53397 8169741
675	19737365 10121 632484 971412 12.9620001724 19.9220001724 349 146 146 50954 7439284
676	19747486 16704 632506 970851 12.963 19.909 696 0.004 0.004 2.784 0.011136
677	19764190 14268 632506 970851 12.963 19.909 696 8 99 37236 3433020
678	19778458 14268 632510 970854 12.963 19.909 696 8 99 37236 3433020
679	19792726 13920 632510 970854 12.963 19.909 696 0 0 0 0
680	19806646 16704 632510 970854 12.963 19.909 696 0.004 0.004 2.784 0.011136
681	19823350 13920 632510 970854 12.963 19.909 696 0 0 0 0
682	19837270 13591 631916 970946 12.95 19.91 697 0 0 0 0
683	19850861 13591 631916 970946 12.95 19.91 697 0 0 0 0
684	19864452 13591 631916 970946 12.95 19.91 697 1 1 697 697
685	19878043 11790 632790 970854 12.969 19.909 348 5146.426092991 5147.6719071777 1791203.7450689 9219571470.4832
686	19889833 6960 632790 970854 12.969 19.909 348 0 0 0 0
687	19896793 11484 632790 970854 12.969 19.909 348 0.014475134267 0.014475134267 5.037346724916 0.072916270192592
688	19908277 7656 632790 970854 12.969 19.909 348 103 103 35844 3691932
689	19915933 7656 632791 970855 12.969 19.909 348 103 103 35844 3691932
690	19923589 7656 632791 970855 12.969 19.909 348 102 102 35496 3620592
691	19931245 7656 632795 970859 12.969 19.909 348 118 118 41064 4845552
692	19938901 8004 632797 970861 12.969 19.909 348 1104 1104 384192 424147968
693	19946905 6960 632797 970861 12.969 19.909 348 0 0 0 0
694	19953865 8004 632797 970861 12.969 19.909 348 1104 1104 384192 424147968
695	19961869 7656 632797 970861 12.969 19.909 348 138 138 48024 6627312
696	19969525 7656 632797 970861 12.969 19.909 348 145 145 50460 7316700
697	19977181 9744 632825 970887 12.969000166 19.909000166 348 145 145 50460 7316700
698	19986925 9744 632825 970887 12.969000166 19.909000166 348 138 138 48024 6627312
699	19996669 10440 631962 970040 12.951549923779 19.891549923779 348 57 57 19836 1130652
700	20007109 10440 631962 970040 12.951549923779 19.891549923779 348 58 58 20184 1170672
701	20017549 10440 631963 970041 12.951549923779 19.891549923779 348 58 58 20184 1170672
702	20027989 25056 631965 970537 12.951549923779 19.902 1044 26 60 42456 1939056
704	20053045 21576 631981 970551 12.952 19.902 1044 1 38 23316 775692
705	20074621 44830 631906 973955 12.95 20 2220 1 38 24492 776868
706	20119451 33936 632034 970704 12.953 19.906 1740 1 1 1740 1740
707	20153387 34800 632084 970791 12.954 19.907 1740 1 1 1740 1740
708	20188187 13920 632191 970533 12.956 19.902 696 1 1 696 696
709	20202107 20880 632193 970707 12.956 19.906 1044 0 0 0 0
710	20222987 14616 632193 970535 12.956 19.902 696 26 36 21576 686256
711	20237603 13920 632210 970552 12.956 19.902 696 4 4 2784 11136
712	20251523 23664 632260 970612 12.957 19.903 696 7.5394139076282 7.8666067246329 5361.2951800269 41316.739673841
713	20275187 16272 632344 970704 12.96 19.906 696 0.004 0.004 2.784 0.011136
714	20291459 14184 632344 970704 12.96 19.906 696 26 36 21576 686256
715	20305643 14184 632348 970707 12.96 19.906 696 26 36 21576 686256
716	20319827 13488 632348 970707 12.96 19.906 696 0 0 0 0
717	20333315 16272 632348 970707 12.96 19.906 696 0.004 0.004 2.784 0.011136
718	20349587 13488 632348 970707 12.96 19.906 696 0 0 0 0
719	20363075 13920 632422 970791 12.961 19.907 696 0 0 0 0
720	20376995 13920 632422 970791 12.961 19.907 696 0 0 0 0
721	20390915 13920 632422 970791 12.961 19.907 696 1 1 696 696
722	20404835 11795 632631 970707 12.966 19.906 348 2898.6580286904 2899.1258916909 1008825.9309979 2924510808.1116
723	20416630 6960 632631 970707 12.966 19.906 348 0 0 0 0
724	20423590 11484 632631 970707 12.966 19.906 348 0.014450076221 0.014450076221 5.028626524908 0.072664036571863
725	20435074 7308 632631 970707 12.966 19.906 348 58 58 20184 1170672
726	20442382 7308 632632 970708 12.966 19.906 348 58 58 20184 1170672
727	20449690 7308 632632 970708 12.966 19.906 348 57 57 19836 1130652
728	20456998 7308 632636 970712 12.966 19.906 348 73 73 25404 1854492
729	20464306 7656 632638 970714 12.966 19.906 348 744 744 258912 192630528
730	20471962 6960 632638 970714 12.966 19.906 348 0 0 0 0
731	20478922 7656 632638 970714 12.966 19.906 348 744 744 258912 192630528
732	20486578 7308 632638 970714 12.966 19.906 348 93 93 32364 3009852
733	20493886 7656 632638 970714 12.966 19.906 348 100 100 34800 3480000
734	20501542 9396 632672 970747 12.96600013 19.90600013 348 100 100 34800 3480000
735	20510938 9048 632672 970747 12.96600013 19.90600013 348 93 93 32364 3009852
736	20519986 1546 634554 974122 13 20 71 23360 58400 4111360 239284889600
737	20521532 1546 634554 974122 13 20 71 23360 58400 4111360 239284889600
738	20523078 1616 634592 974122 13 20 71 40400 187600 13172400 2465195360000
739	20524694 1616 634592 974122 13 20 71 40400 187600 13172400 2465195360000
740	20526310 1616 634596 974122 13 20 71 40400 187600 13172400 2465195360000
741	20527926 1616 634596 974122 13 20 71 40400 187600 13172400 2465195360000
742	20529542 1545 634752 974122 13 20 71 7440 37200 2611440 96924153600
743	20531087 1545 634752 974122 13 20 71 7440 37200 2611440 96924153600
744	20532632 1546 634906 974122 13 20 71 11040 55200 3875040 213414681600
745	20534178 1546 634906 974122 13 20 71 11040 55200 3875040 213414681600
746	20535724 1542 635140 974122 13 20 71 0 44000 3080000 135520000000
747	20537266 1542 635140 974122 13 20 71 0 44000 3080000 135520000000
748	20538808 1546 635210 974122 13 20 71 12960 64800 4548960 294100761600
749	20540354 1546 635210 974122 13 20 71 12960 64800 4548960 294100761600
750	20541900 3461 974122 974122 0.1 20 200 0 0 0 0
751	20545361 3461 974122 974122 0.1 20 200 0 0 0 0
752	20548822 3461 974122 974122 0.1 20 200 0 0 0 0
753	20552283 3461 974122 974122 0.1 20 200 0 0 0 0
754	20555744 3461 974122 974122 0.1 20 200 0 0 0 0
755	20559205 3461 974122 974122 0.1 20 200 0 0 0 0
756	20562666 3461 974122 974122 0.1 20 200 0 0 0 0
757	20566127 3461 974122 974122 0.1 20 200 0 0 0 0
758	20569588 3461 974122 974122 0.1 20 200 0 0 0 0
759	20573049 3461 974122 974122 0.1 20 200 0 0 0 0
760	20576510 3461 974122 974122 0.1 20 200 0 0 0 0
761	20579971 3461 974122 974122 0.1 20 200 0 0 0 0
762	20583432 3461 974122 974122 0.1 20 200 0 0 0 0
763	20586893 3461 974122 974122 0.1 20 200 0 0 0 0
764	20590354 3461 974122 974122 0.1 20 200 0 0 0 0
765	20593815 3461 974122 974122 0.1 20 200 0 0 0 0
766	20597276 3461 974122 974122 0.1 20 200 0 0 0 0
767	20600737 3461 974122 974122 0.1 20 200 0 0 0 0
768	20604198 3461 974122 974122 0.1 20 200 0 0 0 0
769	20607659 3461 974122 974122 0.1 20 200 0 0 0 0
770	20611120 3461 974122 974122 0.1 20 200 0 0 0 0
771	20614581 3461 974122 974122 0.1 20 200 0 0 0 0
772	20618042 3465 974122 974122 0.1 20 200 0 35840 35840 1284505600
773	20621507 3465 974122 974122 0.1 20 200 0 35840 35840 1284505600
774	20624972 3465 974122 974122 0.1 20 200 0 39680 39680 1574502400
775	20628437 3465 974122 974122 0.1 20 200 0 39680 39680 1574502400
776	20631902 3465 974122 974122 0.1 20 200 0 40960 40960 1677721600
777	20635367 3465 974122 974122 0.1 20 200 0 40960 40960 1677721600
778	20638832 3461 974122 974122 0.1 20 200 0 0 0 0
779	20642293 3461 974122 974122 0.1 20 200 0 0 0 0
780	20645754 3461 974122 974122 0.1 20 200 0 0 0 0
781	20649215 3461 974122 974122 0.1 20 200 0 0 0 0
782	20652676 3465 974122 974122 0.1 20 200 0 38400 38400 1474560000
783	20656141 3465 974122 974122 0.1 20 200 0 38400 38400 1474560000
784	20659606 3465 974122 974122 0.1 20 200 0 38400 38400 1474560000
785	20663071 3465 974122 974122 0.1 20 200 0 38400 38400 1474560000
786	20666536 3465 974122 974122 0.1 20 200 0 38400 38400 1474560000
787	20670001 3465 974122 974122 0.1 20 200 0 38400 38400 1474560000
788	20673466 3461 974122 974122 0.1 20 200 0 0 0 0
789	20676927 3461 974122 974122 0.1 20 200 0 0 0 0
790	20680388 3461 974122 974122 0.1 20 200 0 0 0 0
791	20683849 3461 974122 974122 0.1 20 200 0 0 0 0
792	20687310 3461 974122 974122 0.1 20 200 0 0 0 0
793	20690771 3461 974122 974122 0.1 20 200 0 0 0 0
794	20694232 3465 974122 974122 0.1 20 200 0 35840 35840 1284505600
795	20697697 3465 974122 974122 0.1 20 200 0 35840 35840 1284505600
796	20701162 3465 974122 974122 0.1 20 200 0 35840 35840 1284505600
797	20704627 3465 974122 974122 0.1 20 200 0 35840 35840 1284505600
798	20708092 3465 974122 974122 0.1 20 200 0 35840 35840 1284505600
799	20711557 3465 974122 974122 0.1 20 200 0 35840 35840 1284505600
800	20715022 3461 974122 974122 0.1 20 200 0 0 0 0
801	20718483 3461 974122 974122 0.1 20 200 0 0 0 0
802	20721944 3465 974122 974122 0.1 20 200 0 43520 43520 1893990400
803	20725409 3465 974122 974122 0.1 20 200 0 43520 43520 1893990400
804	20728874 3461 974122 974122 0.1 20 200 0 0 0 0
805	20732335 3461 974122 974122 0.1 20 200 0 0 0 0
806	20735796 3465 974122 974122 0.1 20 200 0 38400 38400 1474560000
807	20739261 3465 974122 974122 0.1 20 200 0 38400 38400 1474560000
808	20742726 3465 974122 974122 0.1 20 200 0 38400 38400 1474560000
809	20746191 3465 974122 974122 0.1 20 200 0 38400 38400 1474560000
810	20749656 3461 974122 974122 0.1 20 200 0 0 0 0
811	20753117 3461 974122 974122 0.1 20 200 0 0 0 0
812	20756578 3461 974122 974122 0.1 20 200 0 0 0 0
813	20760039 3461 974122 974122 0.1 20 200 0 0 0 0
814	20763500 3465 974122 974122 0.1 20 200 0 46080 46080 2123366400
815	20766965 3465 974122 974122 0.1 20 200 0 46080 46080 2123366400
816	20770430 3465 974122 974122 0.1 20 200 0 42240 42240 1784217600
817	20773895 3465 974122 974122 0.1 20 200 0 42240 42240 1784217600
818	20777360 3465 974122 974122 0.1 20 200 0 42240 42240 1784217600
819	20780825 3465 974122 974122 0.1 20 200 0 42240 42240 1784217600
820	20784290 3465 974122 974122 0.1 20 200 0 42240 42240 1784217600
821	20787755 3465 974122 974122 0.1 20 200 0 42240 42240 1784217600
822	20791220 3465 974122 974122 0.1 20 200 0 42240 42240 1784217600
823	20794685 3465 974122 974122 0.1 20 200 0 42240 42240 1784217600
824	20798150 3465 974122 974122 0.1 20 200 0 42240 42240 1784217600
825	20801615 3465 974122 974122 0.1 20 200 0 42240 42240 1784217600
826	20805080 3465 974122 974122 0.1 20 200 0 42240 42240 1784217600
827	20808545 3465 974122 974122 0.1 20 200 0 42240 42240 1784217600
828	20812010 3465 974122 974122 0.1 20 200 0 42240 42240 1784217600
829	20815475 3465 974122 974122 0.1 20 200 0 42240 42240 1784217600
830	20818940 3461 974122 974122 0.1 20 200 0 0 0 0
831	20822401 3461 974122 974122 0.1 20 200 0 0 0 0
832	20825862 3461 974122 974122 0.1 20 200 0 0 0 0
833	20829323 3461 974122 974122 0.1 20 200 0 0 0 0
834	20832784 3461 974122 974122 0.1 20 200 0 0 0 0
835	20836245 3461 974122 974122 0.1 20 200 0 0 0 0
836	20839706 3465 974122 974122 0.1 20 200 0 38400 38400 1474560000
837	20843171 3465 974122 974122 0.1 20 200 0 38400 38400 1474560000
838	20846636 3465 974122 974122 0.1 20 200 0 38400 38400 1474560000
839	20850101 3465 974122 974122 0.1 20 200 0 38400 38400 1474560000
840	20853566 3465 974122 974122 0.1 20 200 0 38400 38400 1474560000
841	20857031 3465 974122 974122 0.1 20 200 0 38400 38400 1474560000
842	20860496 3461 974122 974122 0.1 20 200 0 0 0 0
843	20863957 3461 974122 974122 0.1 20 200 0 0 0 0
844	20867418 3461 974122 974122 0.1 20 200 0 0 0 0
845	20870879 3461 974122 974122 0.1 20 200 0 0 0 0
846	20874340 3465 974122 974122 0.1 20 200 0 35840 35840 1284505600
847	20877805 3465 974122 974122 0.1 20 200 0 35840 35840 1284505600
848	20881270 3465 974122 974122 0.1 20 200 0 35840 35840 1284505600
849	20884735 3465 974122 974122 0.1 20 200 0 35840 35840 1284505600
850	20888200 3465 974122 974122 0.1 20 200 0 35840 35840 1284505600
851	20891665 3465 974122 974122 0.1 20 200 0 35840 35840 1284505600
852	20895130 3461 974122 974122 0.1 20 200 0 0 0 0
853	20898591 3461 974122 974122 0.1 20 200 0 0 0 0
854	20902052 3461 974122 974122 0.1 20 200 0 0 0 0
855	20905513 3461 974122 974122 0.1 20 200 0 0 0 0
856	20908974 3461 974122 974122 0.1 20 200 0 0 0 0
857	20912435 3461 974122 974122 0.1 20 200 0 0 0 0
858	20915896 3465 974122 974122 0.1 20 200 0 38400 38400 1474560000
859	20919361 3465 974122 974122 0.1 20 200 0 38400 38400 1474560000
860	20922826 3461 974122 974122 0.1 20 200 0 0 0 0
861	20926287 3461 974122 974122 0.1 20 200 0 0 0 0
862	20929748 3465 974122 974122 0.1 20 200 0 38400 38400 1474560000
863	20933213 3465 974122 974122 0.1 20 200 0 38400 38400 1474560000
864	20936678 3465 974122 974122 0.1 20 200 0 38400 38400 1474560000
865	20940143 3465 974122 974122 0.1 20 200 0 38400 38400 1474560000
866	20943608 3461 974122 974122 0.1 20 200 0 0 0 0
867	20947069 3461 974122 974122 0.1 20 200 0 0 0 0
868	20950530 3461 974122 974122 0.1 20 200 0 0 0 0
869	20953991 3461 974122 974122 0.1 20 200 0 0 0 0
870	20957452 3465 974122 974122 0.1 20 200 0 35840 35840 1284505600
871	20960917 3465 974122 974122 0.1 20 200 0 35840 35840 1284505600
872	20964382 3465 974122 974122 0.1 20 200 0 35840 35840 1284505600
873	20967847 3465 974122 974122 0.1 20 200 0 35840 35840 1284505600
874	20971312 3465 974122 974122 0.1 20 200 0 35840 35840 1284505600
875	20974777 3465 974122 974122 0.1 20 200 0 35840 35840 1284505600
876	20978242 3461 974122 974122 0.1 20 200 0 0 0 0
877	20981703 3461 974122 974122 0.1 20 200 0 0 0 0
878	20985164 21 974122 974122 20 20 1 3681.5 3681.5 3681.5 13553442.25
879	20985185 21 974122 974122 20 20 1 4880.4 4880.4 4880.4 23818304.16
880	20985206 22 974122 974122 20 20 1 1442.75 1442.75 1442.75 2081527.5625
881	20985228 21 974122 974122 20 20 1 2288.5 2288.5 2288.5 5237232.25
882	20985249 21 974122 974122 20 20 1 4083.6 4083.6 4083.6 16675788.96

