version 3
run General-0-20240419-01:23:11-89786
attr configname General
attr datetime 20240419-01:23:11
attr datetimef 20240419-012311
attr experiment General
attr inifile omnetpp.ini
attr iterationvars ""
attr iterationvarsd ""
attr iterationvarsf ""
attr measurement ""
attr network Eastleigh_5GNet
attr processid 89786
attr repetition 0
attr replication #0
attr resultdir results
attr runnumber 0
attr seedset 0
config image-path ../images:../../inet4.5/images:../../simu5g/images
config network Eastleigh_5GNet
config sim-time-limit 20s
config *.bgCell.*.isNr true
config *.bgCell.*.carrierFrequency default
config *.bgCell.*.numBands default
config *.bgCell.*.txPower default
config *.bgCell.*.fading_type default
config *.bgCell.*.scenario default
config *.bgCell.*.nodeb_height default
config *.bgCell.*.building_height 7
config *.carrierAggregation.numComponentCarriers default
config *.carrierAggregation.componentCarrier[0].carrierFrequency default
config *.carrierAggregation.componentCarrier[0].numerologyIndex default
config *.carrierAggregation.componentCarrier[0].numBands default
config **.ueTxPower default
config **.eNodeBTxPower default
config *.gnb*.txPower default
config *.gnb*.cellularNic.channelModel[*].nodeb_height default
config *.gnb*.cellularNic.channelModel[*].building_height 7
config *.gnb*.*.channelModel[*].antennaGainEnB default
config *.gnb*.*.channelModel[*].antennaGainUe default
config *.gnb*.cellInfo.rbxDl 7
config *.gnb*.cellInfo.rbxUl 7
config *.nrUe*.cellularNic.channelModel[*].nodeb_height default
config *.nrUe*.*.channelModel[*].building_height 7
config *.nrUe*.*.channelModel[*].antennaGainEnB default
config *.nrUe*.*.channelModel[*].antennaGainUe default
config *.nrUe*.macCellId 0
config *.nrUe*.masterId 0
config *.nrUe*.nrMacCellId 1
config *.nrUe*.nrMasterId 1
config **.dynamicCellAssociation true
config **.enableHandover true
config **.sctp.nagleEnabled false
config **.sctp.enableHeartbeats false
config **.mobility.constraintAreaMaxX 700m
config **.mobility.constraintAreaMaxY 700m
config **.mobility.constraintAreaMaxZ 0m
config **.mobility.constraintAreaMinX 0m
config **.mobility.constraintAreaMinY 0m
config **.mobility.constraintAreaMinZ 0m
config **.mobility.initFromDisplayString true
config *.gnb0.numX2Apps 3
config *.gnb1.numX2Apps 3
config *.gnb2.numX2Apps 3
config *.gnb3.numX2Apps 3
config *.gnb4.numX2Apps 8
config *.gnb5.numX2Apps 3
config *.gnb6.numX2Apps 3
config *.gnb7.numX2Apps 3
config *.gnb8.numX2Apps 3
config *.gnb*.x2App[*].server.localPort "5000 + ancestorIndex(1)"
config *.gnb0.x2App[0].client.connectAddress "\"gnb1%x2ppp1\""
config *.gnb0.x2App[1].client.connectAddress "\"gnb4%x2ppp0\""
config *.gnb0.x2App[2].client.connectAddress "\"gnb3%x2ppp1\""
config *.gnb1.x2App[0].client.connectAddress "\"gnb0%x2ppp1\""
config *.gnb1.x2App[1].client.connectAddress "\"gnb4%x2ppp1\""
config *.gnb1.x2App[2].client.connectAddress "\"gnb2%x2ppp1\""
config *.gnb2.x2App[0].client.connectAddress "\"gnb1%x2ppp2\""
config *.gnb2.x2App[1].client.connectAddress "\"gnb4%x2ppp2\""
config *.gnb2.x2App[2].client.connectAddress "\"gnb5%x2ppp1\""
config *.gnb3.x2App[0].client.connectAddress "\"gnb0%x2ppp2\""
config *.gnb3.x2App[1].client.connectAddress "\"gnb4%x2ppp3\""
config *.gnb3.x2App[2].client.connectAddress "\"gnb6%x2ppp1\""
config *.gnb4.x2App[0].client.connectAddress "\"gnb0%x2ppp0\""
config *.gnb4.x2App[1].client.connectAddress "\"gnb1%x2ppp0\""
config *.gnb4.x2App[2].client.connectAddress "\"gnb2%x2ppp0\""
config *.gnb4.x2App[3].client.connectAddress "\"gnb3%x2ppp0\""
config *.gnb4.x2App[4].client.connectAddress "\"gnb5%x2ppp0\""
config *.gnb4.x2App[5].client.connectAddress "\"gnb6%x2ppp0\""
config *.gnb4.x2App[6].client.connectAddress "\"gnb7%x2ppp0\""
config *.gnb4.x2App[7].client.connectAddress "\"gnb8%x2ppp0\""
config *.gnb5.x2App[0].client.connectAddress "\"gnb2%x2ppp2\""
config *.gnb5.x2App[1].client.connectAddress "\"gnb4%x2ppp4\""
config *.gnb5.x2App[2].client.connectAddress "\"gnb8%x2ppp1\""
config *.gnb6.x2App[0].client.connectAddress "\"gnb3%x2ppp2\""
config *.gnb6.x2App[1].client.connectAddress "\"gnb4%x2ppp5\""
config *.gnb6.x2App[2].client.connectAddress "\"gnb7%x2ppp1\""
config *.gnb7.x2App[0].client.connectAddress "\"gnb6%x2ppp2\""
config *.gnb7.x2App[1].client.connectAddress "\"gnb4%x2ppp6\""
config *.gnb7.x2App[2].client.connectAddress "\"gnb8%x2ppp2\""
config *.gnb8.x2App[0].client.connectAddress "\"gnb5%x2ppp2\""
config *.gnb8.x2App[1].client.connectAddress "\"gnb4%x2ppp7\""
config *.gnb8.x2App[2].client.connectAddress "\"gnb7%x2ppp2\""
config *.nrUe*.numApps 1
config *.server.numApps 1
config *.server.app[*].typename CbrReceiver
config *.server.app[*].localPort "3000 + ancestorIndex(0)"
config *.nrUe*.app[*].typename CbrSender
config *.nrUe*.app[*].PacketSize 100
config *.nrUe*.app[*].sampling_time 0.02s
config *.nrUe*.app[*].destAddress "\"server\""
config *.nrUe*.app[*].destPort "3000 + ancestorIndex(0)"
config *.nrUe*.app[*].localPort "3088 + ancestorIndex(0)"
config *.nrUe*.app[*].startTime "uniform(0s, 0.02s)"
config *.nrUe*.app[*].finishTime "uniform(19.9s, 19.92s)"

scalar Eastleigh_5GNet.gnb0.x2App[0].client ums 1452
scalar Eastleigh_5GNet.gnb0.x2App[1].client ums 1452
scalar Eastleigh_5GNet.gnb0.x2App[2].client ums 1452
scalar Eastleigh_5GNet.gnb1.x2App[0].client ums 1452
scalar Eastleigh_5GNet.gnb1.x2App[1].client ums 1452
scalar Eastleigh_5GNet.gnb1.x2App[2].client ums 1452
scalar Eastleigh_5GNet.gnb2.x2App[0].client ums 1452
scalar Eastleigh_5GNet.gnb2.x2App[1].client ums 1452
scalar Eastleigh_5GNet.gnb2.x2App[2].client ums 1452
scalar Eastleigh_5GNet.gnb3.x2App[0].client ums 1452
scalar Eastleigh_5GNet.gnb3.x2App[1].client ums 1452
scalar Eastleigh_5GNet.gnb3.x2App[2].client ums 1452
scalar Eastleigh_5GNet.gnb4.x2App[0].client ums 1452
scalar Eastleigh_5GNet.gnb4.x2App[1].client ums 1452
scalar Eastleigh_5GNet.gnb4.x2App[2].client ums 1452
scalar Eastleigh_5GNet.gnb4.x2App[3].client ums 1452
scalar Eastleigh_5GNet.gnb4.x2App[4].client ums 1452
scalar Eastleigh_5GNet.gnb4.x2App[5].client ums 1452
scalar Eastleigh_5GNet.gnb4.x2App[6].client ums 1452
scalar Eastleigh_5GNet.gnb4.x2App[7].client ums 1452
scalar Eastleigh_5GNet.gnb5.x2App[0].client ums 1452
scalar Eastleigh_5GNet.gnb5.x2App[1].client ums 1452
scalar Eastleigh_5GNet.gnb5.x2App[2].client ums 1452
scalar Eastleigh_5GNet.gnb6.x2App[0].client ums 1452
scalar Eastleigh_5GNet.gnb6.x2App[1].client ums 1452
scalar Eastleigh_5GNet.gnb6.x2App[2].client ums 1452
scalar Eastleigh_5GNet.gnb7.x2App[0].client ums 1452
scalar Eastleigh_5GNet.gnb7.x2App[1].client ums 1452
scalar Eastleigh_5GNet.gnb7.x2App[2].client ums 1452
scalar Eastleigh_5GNet.gnb8.x2App[0].client ums 1452
scalar Eastleigh_5GNet.gnb8.x2App[1].client ums 1452
scalar Eastleigh_5GNet.gnb8.x2App[2].client ums 1452
par Eastleigh_5GNet.server.pppg$o[0].channel typename "\"inet.node.ethernet.Eth10G\""
par Eastleigh_5GNet.server.pppg$o[0].channel disabled false
attr mutable ""
par Eastleigh_5GNet.server.pppg$o[0].channel delay 5e-08s
attr mutable ""
attr unit s
par Eastleigh_5GNet.server.pppg$o[0].channel datarate 1e+10bps
attr mutable ""
attr unit bps
par Eastleigh_5GNet.server.pppg$o[0].channel ber 0
attr mutable ""
par Eastleigh_5GNet.server.pppg$o[0].channel per 0
attr mutable ""
par Eastleigh_5GNet.server.pppg$o[0].channel length 10m
attr unit m
par Eastleigh_5GNet.router.pppg$o[0].channel typename "\"inet.node.ethernet.Eth10G\""
par Eastleigh_5GNet.router.pppg$o[0].channel disabled false
attr mutable ""
par Eastleigh_5GNet.router.pppg$o[0].channel delay 5e-08s
attr mutable ""
attr unit s
par Eastleigh_5GNet.router.pppg$o[0].channel datarate 1e+10bps
attr mutable ""
attr unit bps
par Eastleigh_5GNet.router.pppg$o[0].channel ber 0
attr mutable ""
par Eastleigh_5GNet.router.pppg$o[0].channel per 0
attr mutable ""
par Eastleigh_5GNet.router.pppg$o[0].channel length 10m
attr unit m
par Eastleigh_5GNet.router.pppg$o[1].channel typename "\"inet.node.ethernet.Eth10G\""
par Eastleigh_5GNet.router.pppg$o[1].channel disabled false
attr mutable ""
par Eastleigh_5GNet.router.pppg$o[1].channel delay 5e-08s
attr mutable ""
attr unit s
par Eastleigh_5GNet.router.pppg$o[1].channel datarate 1e+10bps
attr mutable ""
attr unit bps
par Eastleigh_5GNet.router.pppg$o[1].channel ber 0
attr mutable ""
par Eastleigh_5GNet.router.pppg$o[1].channel per 0
attr mutable ""
par Eastleigh_5GNet.router.pppg$o[1].channel length 10m
attr unit m
par Eastleigh_5GNet.upf.filterGate$o.channel typename "\"inet.node.ethernet.Eth10G\""
par Eastleigh_5GNet.upf.filterGate$o.channel disabled false
attr mutable ""
par Eastleigh_5GNet.upf.filterGate$o.channel delay 5e-08s
attr mutable ""
attr unit s
par Eastleigh_5GNet.upf.filterGate$o.channel datarate 1e+10bps
attr mutable ""
attr unit bps
par Eastleigh_5GNet.upf.filterGate$o.channel ber 0
attr mutable ""
par Eastleigh_5GNet.upf.filterGate$o.channel per 0
attr mutable ""
par Eastleigh_5GNet.upf.filterGate$o.channel length 10m
attr unit m
par Eastleigh_5GNet.upf.pppg$o[0].channel typename "\"inet.node.ethernet.Eth10G\""
par Eastleigh_5GNet.upf.pppg$o[0].channel disabled false
attr mutable ""
par Eastleigh_5GNet.upf.pppg$o[0].channel delay 5e-08s
attr mutable ""
attr unit s
par Eastleigh_5GNet.upf.pppg$o[0].channel datarate 1e+10bps
attr mutable ""
attr unit bps
par Eastleigh_5GNet.upf.pppg$o[0].channel ber 0
attr mutable ""
par Eastleigh_5GNet.upf.pppg$o[0].channel per 0
attr mutable ""
par Eastleigh_5GNet.upf.pppg$o[0].channel length 10m
attr unit m
par Eastleigh_5GNet.gnb0.ppp$o.channel typename "\"inet.node.ethernet.Eth10G\""
par Eastleigh_5GNet.gnb0.ppp$o.channel disabled false
attr mutable ""
par Eastleigh_5GNet.gnb0.ppp$o.channel delay 5e-08s
attr mutable ""
attr unit s
par Eastleigh_5GNet.gnb0.ppp$o.channel datarate 1e+10bps
attr mutable ""
attr unit bps
par Eastleigh_5GNet.gnb0.ppp$o.channel ber 0
attr mutable ""
par Eastleigh_5GNet.gnb0.ppp$o.channel per 0
attr mutable ""
par Eastleigh_5GNet.gnb0.ppp$o.channel length 10m
attr unit m
par Eastleigh_5GNet.upf.pppg$o[1].channel typename "\"inet.node.ethernet.Eth10G\""
par Eastleigh_5GNet.upf.pppg$o[1].channel disabled false
attr mutable ""
par Eastleigh_5GNet.upf.pppg$o[1].channel delay 5e-08s
attr mutable ""
attr unit s
par Eastleigh_5GNet.upf.pppg$o[1].channel datarate 1e+10bps
attr mutable ""
attr unit bps
par Eastleigh_5GNet.upf.pppg$o[1].channel ber 0
attr mutable ""
par Eastleigh_5GNet.upf.pppg$o[1].channel per 0
attr mutable ""
par Eastleigh_5GNet.upf.pppg$o[1].channel length 10m
attr unit m
par Eastleigh_5GNet.gnb1.ppp$o.channel typename "\"inet.node.ethernet.Eth10G\""
par Eastleigh_5GNet.gnb1.ppp$o.channel disabled false
attr mutable ""
par Eastleigh_5GNet.gnb1.ppp$o.channel delay 5e-08s
attr mutable ""
attr unit s
par Eastleigh_5GNet.gnb1.ppp$o.channel datarate 1e+10bps
attr mutable ""
attr unit bps
par Eastleigh_5GNet.gnb1.ppp$o.channel ber 0
attr mutable ""
par Eastleigh_5GNet.gnb1.ppp$o.channel per 0
attr mutable ""
par Eastleigh_5GNet.gnb1.ppp$o.channel length 10m
attr unit m
par Eastleigh_5GNet.upf.pppg$o[2].channel typename "\"inet.node.ethernet.Eth10G\""
par Eastleigh_5GNet.upf.pppg$o[2].channel disabled false
attr mutable ""
par Eastleigh_5GNet.upf.pppg$o[2].channel delay 5e-08s
attr mutable ""
attr unit s
par Eastleigh_5GNet.upf.pppg$o[2].channel datarate 1e+10bps
attr mutable ""
attr unit bps
par Eastleigh_5GNet.upf.pppg$o[2].channel ber 0
attr mutable ""
par Eastleigh_5GNet.upf.pppg$o[2].channel per 0
attr mutable ""
par Eastleigh_5GNet.upf.pppg$o[2].channel length 10m
attr unit m
par Eastleigh_5GNet.gnb2.ppp$o.channel typename "\"inet.node.ethernet.Eth10G\""
par Eastleigh_5GNet.gnb2.ppp$o.channel disabled false
attr mutable ""
par Eastleigh_5GNet.gnb2.ppp$o.channel delay 5e-08s
attr mutable ""
attr unit s
par Eastleigh_5GNet.gnb2.ppp$o.channel datarate 1e+10bps
attr mutable ""
attr unit bps
par Eastleigh_5GNet.gnb2.ppp$o.channel ber 0
attr mutable ""
par Eastleigh_5GNet.gnb2.ppp$o.channel per 0
attr mutable ""
par Eastleigh_5GNet.gnb2.ppp$o.channel length 10m
attr unit m
par Eastleigh_5GNet.upf.pppg$o[3].channel typename "\"inet.node.ethernet.Eth10G\""
par Eastleigh_5GNet.upf.pppg$o[3].channel disabled false
attr mutable ""
par Eastleigh_5GNet.upf.pppg$o[3].channel delay 5e-08s
attr mutable ""
attr unit s
par Eastleigh_5GNet.upf.pppg$o[3].channel datarate 1e+10bps
attr mutable ""
attr unit bps
par Eastleigh_5GNet.upf.pppg$o[3].channel ber 0
attr mutable ""
par Eastleigh_5GNet.upf.pppg$o[3].channel per 0
attr mutable ""
par Eastleigh_5GNet.upf.pppg$o[3].channel length 10m
attr unit m
par Eastleigh_5GNet.gnb3.ppp$o.channel typename "\"inet.node.ethernet.Eth10G\""
par Eastleigh_5GNet.gnb3.ppp$o.channel disabled false
attr mutable ""
par Eastleigh_5GNet.gnb3.ppp$o.channel delay 5e-08s
attr mutable ""
attr unit s
par Eastleigh_5GNet.gnb3.ppp$o.channel datarate 1e+10bps
attr mutable ""
attr unit bps
par Eastleigh_5GNet.gnb3.ppp$o.channel ber 0
attr mutable ""
par Eastleigh_5GNet.gnb3.ppp$o.channel per 0
attr mutable ""
par Eastleigh_5GNet.gnb3.ppp$o.channel length 10m
attr unit m
par Eastleigh_5GNet.upf.pppg$o[4].channel typename "\"inet.node.ethernet.Eth10G\""
par Eastleigh_5GNet.upf.pppg$o[4].channel disabled false
attr mutable ""
par Eastleigh_5GNet.upf.pppg$o[4].channel delay 5e-08s
attr mutable ""
attr unit s
par Eastleigh_5GNet.upf.pppg$o[4].channel datarate 1e+10bps
attr mutable ""
attr unit bps
par Eastleigh_5GNet.upf.pppg$o[4].channel ber 0
attr mutable ""
par Eastleigh_5GNet.upf.pppg$o[4].channel per 0
attr mutable ""
par Eastleigh_5GNet.upf.pppg$o[4].channel length 10m
attr unit m
par Eastleigh_5GNet.gnb4.ppp$o.channel typename "\"inet.node.ethernet.Eth10G\""
par Eastleigh_5GNet.gnb4.ppp$o.channel disabled false
attr mutable ""
par Eastleigh_5GNet.gnb4.ppp$o.channel delay 5e-08s
attr mutable ""
attr unit s
par Eastleigh_5GNet.gnb4.ppp$o.channel datarate 1e+10bps
attr mutable ""
attr unit bps
par Eastleigh_5GNet.gnb4.ppp$o.channel ber 0
attr mutable ""
par Eastleigh_5GNet.gnb4.ppp$o.channel per 0
attr mutable ""
par Eastleigh_5GNet.gnb4.ppp$o.channel length 10m
attr unit m
par Eastleigh_5GNet.upf.pppg$o[5].channel typename "\"inet.node.ethernet.Eth10G\""
par Eastleigh_5GNet.upf.pppg$o[5].channel disabled false
attr mutable ""
par Eastleigh_5GNet.upf.pppg$o[5].channel delay 5e-08s
attr mutable ""
attr unit s
par Eastleigh_5GNet.upf.pppg$o[5].channel datarate 1e+10bps
attr mutable ""
attr unit bps
par Eastleigh_5GNet.upf.pppg$o[5].channel ber 0
attr mutable ""
par Eastleigh_5GNet.upf.pppg$o[5].channel per 0
attr mutable ""
par Eastleigh_5GNet.upf.pppg$o[5].channel length 10m
attr unit m
par Eastleigh_5GNet.gnb5.ppp$o.channel typename "\"inet.node.ethernet.Eth10G\""
par Eastleigh_5GNet.gnb5.ppp$o.channel disabled false
attr mutable ""
par Eastleigh_5GNet.gnb5.ppp$o.channel delay 5e-08s
attr mutable ""
attr unit s
par Eastleigh_5GNet.gnb5.ppp$o.channel datarate 1e+10bps
attr mutable ""
attr unit bps
par Eastleigh_5GNet.gnb5.ppp$o.channel ber 0
attr mutable ""
par Eastleigh_5GNet.gnb5.ppp$o.channel per 0
attr mutable ""
par Eastleigh_5GNet.gnb5.ppp$o.channel length 10m
attr unit m
par Eastleigh_5GNet.upf.pppg$o[6].channel typename "\"inet.node.ethernet.Eth10G\""
par Eastleigh_5GNet.upf.pppg$o[6].channel disabled false
attr mutable ""
par Eastleigh_5GNet.upf.pppg$o[6].channel delay 5e-08s
attr mutable ""
attr unit s
par Eastleigh_5GNet.upf.pppg$o[6].channel datarate 1e+10bps
attr mutable ""
attr unit bps
par Eastleigh_5GNet.upf.pppg$o[6].channel ber 0
attr mutable ""
par Eastleigh_5GNet.upf.pppg$o[6].channel per 0
attr mutable ""
par Eastleigh_5GNet.upf.pppg$o[6].channel length 10m
attr unit m
par Eastleigh_5GNet.gnb6.ppp$o.channel typename "\"inet.node.ethernet.Eth10G\""
par Eastleigh_5GNet.gnb6.ppp$o.channel disabled false
attr mutable ""
par Eastleigh_5GNet.gnb6.ppp$o.channel delay 5e-08s
attr mutable ""
attr unit s
par Eastleigh_5GNet.gnb6.ppp$o.channel datarate 1e+10bps
attr mutable ""
attr unit bps
par Eastleigh_5GNet.gnb6.ppp$o.channel ber 0
attr mutable ""
par Eastleigh_5GNet.gnb6.ppp$o.channel per 0
attr mutable ""
par Eastleigh_5GNet.gnb6.ppp$o.channel length 10m
attr unit m
par Eastleigh_5GNet.upf.pppg$o[7].channel typename "\"inet.node.ethernet.Eth10G\""
par Eastleigh_5GNet.upf.pppg$o[7].channel disabled false
attr mutable ""
par Eastleigh_5GNet.upf.pppg$o[7].channel delay 5e-08s
attr mutable ""
attr unit s
par Eastleigh_5GNet.upf.pppg$o[7].channel datarate 1e+10bps
attr mutable ""
attr unit bps
par Eastleigh_5GNet.upf.pppg$o[7].channel ber 0
attr mutable ""
par Eastleigh_5GNet.upf.pppg$o[7].channel per 0
attr mutable ""
par Eastleigh_5GNet.upf.pppg$o[7].channel length 10m
attr unit m
par Eastleigh_5GNet.gnb7.ppp$o.channel typename "\"inet.node.ethernet.Eth10G\""
par Eastleigh_5GNet.gnb7.ppp$o.channel disabled false
attr mutable ""
par Eastleigh_5GNet.gnb7.ppp$o.channel delay 5e-08s
attr mutable ""
attr unit s
par Eastleigh_5GNet.gnb7.ppp$o.channel datarate 1e+10bps
attr mutable ""
attr unit bps
par Eastleigh_5GNet.gnb7.ppp$o.channel ber 0
attr mutable ""
par Eastleigh_5GNet.gnb7.ppp$o.channel per 0
attr mutable ""
par Eastleigh_5GNet.gnb7.ppp$o.channel length 10m
attr unit m
par Eastleigh_5GNet.upf.pppg$o[8].channel typename "\"inet.node.ethernet.Eth10G\""
par Eastleigh_5GNet.upf.pppg$o[8].channel disabled false
attr mutable ""
par Eastleigh_5GNet.upf.pppg$o[8].channel delay 5e-08s
attr mutable ""
attr unit s
par Eastleigh_5GNet.upf.pppg$o[8].channel datarate 1e+10bps
attr mutable ""
attr unit bps
par Eastleigh_5GNet.upf.pppg$o[8].channel ber 0
attr mutable ""
par Eastleigh_5GNet.upf.pppg$o[8].channel per 0
attr mutable ""
par Eastleigh_5GNet.upf.pppg$o[8].channel length 10m
attr unit m
par Eastleigh_5GNet.gnb8.ppp$o.channel typename "\"inet.node.ethernet.Eth10G\""
par Eastleigh_5GNet.gnb8.ppp$o.channel disabled false
attr mutable ""
par Eastleigh_5GNet.gnb8.ppp$o.channel delay 5e-08s
attr mutable ""
attr unit s
par Eastleigh_5GNet.gnb8.ppp$o.channel datarate 1e+10bps
attr mutable ""
attr unit bps
par Eastleigh_5GNet.gnb8.ppp$o.channel ber 0
attr mutable ""
par Eastleigh_5GNet.gnb8.ppp$o.channel per 0
attr mutable ""
par Eastleigh_5GNet.gnb8.ppp$o.channel length 10m
attr unit m
par Eastleigh_5GNet.gnb0.x2$o[0].channel typename "\"inet.node.ethernet.Eth10G\""
par Eastleigh_5GNet.gnb0.x2$o[0].channel disabled false
attr mutable ""
par Eastleigh_5GNet.gnb0.x2$o[0].channel delay 5e-08s
attr mutable ""
attr unit s
par Eastleigh_5GNet.gnb0.x2$o[0].channel datarate 1e+10bps
attr mutable ""
attr unit bps
par Eastleigh_5GNet.gnb0.x2$o[0].channel ber 0
attr mutable ""
par Eastleigh_5GNet.gnb0.x2$o[0].channel per 0
attr mutable ""
par Eastleigh_5GNet.gnb0.x2$o[0].channel length 10m
attr unit m
par Eastleigh_5GNet.gnb1.x2$o[0].channel typename "\"inet.node.ethernet.Eth10G\""
par Eastleigh_5GNet.gnb1.x2$o[0].channel disabled false
attr mutable ""
par Eastleigh_5GNet.gnb1.x2$o[0].channel delay 5e-08s
attr mutable ""
attr unit s
par Eastleigh_5GNet.gnb1.x2$o[0].channel datarate 1e+10bps
attr mutable ""
attr unit bps
par Eastleigh_5GNet.gnb1.x2$o[0].channel ber 0
attr mutable ""
par Eastleigh_5GNet.gnb1.x2$o[0].channel per 0
attr mutable ""
par Eastleigh_5GNet.gnb1.x2$o[0].channel length 10m
attr unit m
par Eastleigh_5GNet.gnb0.x2$o[1].channel typename "\"inet.node.ethernet.Eth10G\""
par Eastleigh_5GNet.gnb0.x2$o[1].channel disabled false
attr mutable ""
par Eastleigh_5GNet.gnb0.x2$o[1].channel delay 5e-08s
attr mutable ""
attr unit s
par Eastleigh_5GNet.gnb0.x2$o[1].channel datarate 1e+10bps
attr mutable ""
attr unit bps
par Eastleigh_5GNet.gnb0.x2$o[1].channel ber 0
attr mutable ""
par Eastleigh_5GNet.gnb0.x2$o[1].channel per 0
attr mutable ""
par Eastleigh_5GNet.gnb0.x2$o[1].channel length 10m
attr unit m
par Eastleigh_5GNet.gnb3.x2$o[0].channel typename "\"inet.node.ethernet.Eth10G\""
par Eastleigh_5GNet.gnb3.x2$o[0].channel disabled false
attr mutable ""
par Eastleigh_5GNet.gnb3.x2$o[0].channel delay 5e-08s
attr mutable ""
attr unit s
par Eastleigh_5GNet.gnb3.x2$o[0].channel datarate 1e+10bps
attr mutable ""
attr unit bps
par Eastleigh_5GNet.gnb3.x2$o[0].channel ber 0
attr mutable ""
par Eastleigh_5GNet.gnb3.x2$o[0].channel per 0
attr mutable ""
par Eastleigh_5GNet.gnb3.x2$o[0].channel length 10m
attr unit m
par Eastleigh_5GNet.gnb0.x2$o[2].channel typename "\"inet.node.ethernet.Eth10G\""
par Eastleigh_5GNet.gnb0.x2$o[2].channel disabled false
attr mutable ""
par Eastleigh_5GNet.gnb0.x2$o[2].channel delay 5e-08s
attr mutable ""
attr unit s
par Eastleigh_5GNet.gnb0.x2$o[2].channel datarate 1e+10bps
attr mutable ""
attr unit bps
par Eastleigh_5GNet.gnb0.x2$o[2].channel ber 0
attr mutable ""
par Eastleigh_5GNet.gnb0.x2$o[2].channel per 0
attr mutable ""
par Eastleigh_5GNet.gnb0.x2$o[2].channel length 10m
attr unit m
par Eastleigh_5GNet.gnb4.x2$o[0].channel typename "\"inet.node.ethernet.Eth10G\""
par Eastleigh_5GNet.gnb4.x2$o[0].channel disabled false
attr mutable ""
par Eastleigh_5GNet.gnb4.x2$o[0].channel delay 5e-08s
attr mutable ""
attr unit s
par Eastleigh_5GNet.gnb4.x2$o[0].channel datarate 1e+10bps
attr mutable ""
attr unit bps
par Eastleigh_5GNet.gnb4.x2$o[0].channel ber 0
attr mutable ""
par Eastleigh_5GNet.gnb4.x2$o[0].channel per 0
attr mutable ""
par Eastleigh_5GNet.gnb4.x2$o[0].channel length 10m
attr unit m
par Eastleigh_5GNet.gnb1.x2$o[1].channel typename "\"inet.node.ethernet.Eth10G\""
par Eastleigh_5GNet.gnb1.x2$o[1].channel disabled false
attr mutable ""
par Eastleigh_5GNet.gnb1.x2$o[1].channel delay 5e-08s
attr mutable ""
attr unit s
par Eastleigh_5GNet.gnb1.x2$o[1].channel datarate 1e+10bps
attr mutable ""
attr unit bps
par Eastleigh_5GNet.gnb1.x2$o[1].channel ber 0
attr mutable ""
par Eastleigh_5GNet.gnb1.x2$o[1].channel per 0
attr mutable ""
par Eastleigh_5GNet.gnb1.x2$o[1].channel length 10m
attr unit m
par Eastleigh_5GNet.gnb2.x2$o[0].channel typename "\"inet.node.ethernet.Eth10G\""
par Eastleigh_5GNet.gnb2.x2$o[0].channel disabled false
attr mutable ""
par Eastleigh_5GNet.gnb2.x2$o[0].channel delay 5e-08s
attr mutable ""
attr unit s
par Eastleigh_5GNet.gnb2.x2$o[0].channel datarate 1e+10bps
attr mutable ""
attr unit bps
par Eastleigh_5GNet.gnb2.x2$o[0].channel ber 0
attr mutable ""
par Eastleigh_5GNet.gnb2.x2$o[0].channel per 0
attr mutable ""
par Eastleigh_5GNet.gnb2.x2$o[0].channel length 10m
attr unit m
par Eastleigh_5GNet.gnb1.x2$o[2].channel typename "\"inet.node.ethernet.Eth10G\""
par Eastleigh_5GNet.gnb1.x2$o[2].channel disabled false
attr mutable ""
par Eastleigh_5GNet.gnb1.x2$o[2].channel delay 5e-08s
attr mutable ""
attr unit s
par Eastleigh_5GNet.gnb1.x2$o[2].channel datarate 1e+10bps
attr mutable ""
attr unit bps
par Eastleigh_5GNet.gnb1.x2$o[2].channel ber 0
attr mutable ""
par Eastleigh_5GNet.gnb1.x2$o[2].channel per 0
attr mutable ""
par Eastleigh_5GNet.gnb1.x2$o[2].channel length 10m
attr unit m
par Eastleigh_5GNet.gnb4.x2$o[1].channel typename "\"inet.node.ethernet.Eth10G\""
par Eastleigh_5GNet.gnb4.x2$o[1].channel disabled false
attr mutable ""
par Eastleigh_5GNet.gnb4.x2$o[1].channel delay 5e-08s
attr mutable ""
attr unit s
par Eastleigh_5GNet.gnb4.x2$o[1].channel datarate 1e+10bps
attr mutable ""
attr unit bps
par Eastleigh_5GNet.gnb4.x2$o[1].channel ber 0
attr mutable ""
par Eastleigh_5GNet.gnb4.x2$o[1].channel per 0
attr mutable ""
par Eastleigh_5GNet.gnb4.x2$o[1].channel length 10m
attr unit m
par Eastleigh_5GNet.gnb1.x2$o[3].channel typename "\"inet.node.ethernet.Eth10G\""
par Eastleigh_5GNet.gnb1.x2$o[3].channel disabled false
attr mutable ""
par Eastleigh_5GNet.gnb1.x2$o[3].channel delay 5e-08s
attr mutable ""
attr unit s
par Eastleigh_5GNet.gnb1.x2$o[3].channel datarate 1e+10bps
attr mutable ""
attr unit bps
par Eastleigh_5GNet.gnb1.x2$o[3].channel ber 0
attr mutable ""
par Eastleigh_5GNet.gnb1.x2$o[3].channel per 0
attr mutable ""
par Eastleigh_5GNet.gnb1.x2$o[3].channel length 10m
attr unit m
par Eastleigh_5GNet.gnb3.x2$o[1].channel typename "\"inet.node.ethernet.Eth10G\""
par Eastleigh_5GNet.gnb3.x2$o[1].channel disabled false
attr mutable ""
par Eastleigh_5GNet.gnb3.x2$o[1].channel delay 5e-08s
attr mutable ""
attr unit s
par Eastleigh_5GNet.gnb3.x2$o[1].channel datarate 1e+10bps
attr mutable ""
attr unit bps
par Eastleigh_5GNet.gnb3.x2$o[1].channel ber 0
attr mutable ""
par Eastleigh_5GNet.gnb3.x2$o[1].channel per 0
attr mutable ""
par Eastleigh_5GNet.gnb3.x2$o[1].channel length 10m
attr unit m
par Eastleigh_5GNet.gnb1.x2$o[4].channel typename "\"inet.node.ethernet.Eth10G\""
par Eastleigh_5GNet.gnb1.x2$o[4].channel disabled false
attr mutable ""
par Eastleigh_5GNet.gnb1.x2$o[4].channel delay 5e-08s
attr mutable ""
attr unit s
par Eastleigh_5GNet.gnb1.x2$o[4].channel datarate 1e+10bps
attr mutable ""
attr unit bps
par Eastleigh_5GNet.gnb1.x2$o[4].channel ber 0
attr mutable ""
par Eastleigh_5GNet.gnb1.x2$o[4].channel per 0
attr mutable ""
par Eastleigh_5GNet.gnb1.x2$o[4].channel length 10m
attr unit m
par Eastleigh_5GNet.gnb5.x2$o[0].channel typename "\"inet.node.ethernet.Eth10G\""
par Eastleigh_5GNet.gnb5.x2$o[0].channel disabled false
attr mutable ""
par Eastleigh_5GNet.gnb5.x2$o[0].channel delay 5e-08s
attr mutable ""
attr unit s
par Eastleigh_5GNet.gnb5.x2$o[0].channel datarate 1e+10bps
attr mutable ""
attr unit bps
par Eastleigh_5GNet.gnb5.x2$o[0].channel ber 0
attr mutable ""
par Eastleigh_5GNet.gnb5.x2$o[0].channel per 0
attr mutable ""
par Eastleigh_5GNet.gnb5.x2$o[0].channel length 10m
attr unit m
par Eastleigh_5GNet.gnb2.x2$o[1].channel typename "\"inet.node.ethernet.Eth10G\""
par Eastleigh_5GNet.gnb2.x2$o[1].channel disabled false
attr mutable ""
par Eastleigh_5GNet.gnb2.x2$o[1].channel delay 5e-08s
attr mutable ""
attr unit s
par Eastleigh_5GNet.gnb2.x2$o[1].channel datarate 1e+10bps
attr mutable ""
attr unit bps
par Eastleigh_5GNet.gnb2.x2$o[1].channel ber 0
attr mutable ""
par Eastleigh_5GNet.gnb2.x2$o[1].channel per 0
attr mutable ""
par Eastleigh_5GNet.gnb2.x2$o[1].channel length 10m
attr unit m
par Eastleigh_5GNet.gnb5.x2$o[1].channel typename "\"inet.node.ethernet.Eth10G\""
par Eastleigh_5GNet.gnb5.x2$o[1].channel disabled false
attr mutable ""
par Eastleigh_5GNet.gnb5.x2$o[1].channel delay 5e-08s
attr mutable ""
attr unit s
par Eastleigh_5GNet.gnb5.x2$o[1].channel datarate 1e+10bps
attr mutable ""
attr unit bps
par Eastleigh_5GNet.gnb5.x2$o[1].channel ber 0
attr mutable ""
par Eastleigh_5GNet.gnb5.x2$o[1].channel per 0
attr mutable ""
par Eastleigh_5GNet.gnb5.x2$o[1].channel length 10m
attr unit m
par Eastleigh_5GNet.gnb2.x2$o[2].channel typename "\"inet.node.ethernet.Eth10G\""
par Eastleigh_5GNet.gnb2.x2$o[2].channel disabled false
attr mutable ""
par Eastleigh_5GNet.gnb2.x2$o[2].channel delay 5e-08s
attr mutable ""
attr unit s
par Eastleigh_5GNet.gnb2.x2$o[2].channel datarate 1e+10bps
attr mutable ""
attr unit bps
par Eastleigh_5GNet.gnb2.x2$o[2].channel ber 0
attr mutable ""
par Eastleigh_5GNet.gnb2.x2$o[2].channel per 0
attr mutable ""
par Eastleigh_5GNet.gnb2.x2$o[2].channel length 10m
attr unit m
par Eastleigh_5GNet.gnb4.x2$o[2].channel typename "\"inet.node.ethernet.Eth10G\""
par Eastleigh_5GNet.gnb4.x2$o[2].channel disabled false
attr mutable ""
par Eastleigh_5GNet.gnb4.x2$o[2].channel delay 5e-08s
attr mutable ""
attr unit s
par Eastleigh_5GNet.gnb4.x2$o[2].channel datarate 1e+10bps
attr mutable ""
attr unit bps
par Eastleigh_5GNet.gnb4.x2$o[2].channel ber 0
attr mutable ""
par Eastleigh_5GNet.gnb4.x2$o[2].channel per 0
attr mutable ""
par Eastleigh_5GNet.gnb4.x2$o[2].channel length 10m
attr unit m
par Eastleigh_5GNet.gnb3.x2$o[2].channel typename "\"inet.node.ethernet.Eth10G\""
par Eastleigh_5GNet.gnb3.x2$o[2].channel disabled false
attr mutable ""
par Eastleigh_5GNet.gnb3.x2$o[2].channel delay 5e-08s
attr mutable ""
attr unit s
par Eastleigh_5GNet.gnb3.x2$o[2].channel datarate 1e+10bps
attr mutable ""
attr unit bps
par Eastleigh_5GNet.gnb3.x2$o[2].channel ber 0
attr mutable ""
par Eastleigh_5GNet.gnb3.x2$o[2].channel per 0
attr mutable ""
par Eastleigh_5GNet.gnb3.x2$o[2].channel length 10m
attr unit m
par Eastleigh_5GNet.gnb4.x2$o[3].channel typename "\"inet.node.ethernet.Eth10G\""
par Eastleigh_5GNet.gnb4.x2$o[3].channel disabled false
attr mutable ""
par Eastleigh_5GNet.gnb4.x2$o[3].channel delay 5e-08s
attr mutable ""
attr unit s
par Eastleigh_5GNet.gnb4.x2$o[3].channel datarate 1e+10bps
attr mutable ""
attr unit bps
par Eastleigh_5GNet.gnb4.x2$o[3].channel ber 0
attr mutable ""
par Eastleigh_5GNet.gnb4.x2$o[3].channel per 0
attr mutable ""
par Eastleigh_5GNet.gnb4.x2$o[3].channel length 10m
attr unit m
par Eastleigh_5GNet.gnb3.x2$o[3].channel typename "\"inet.node.ethernet.Eth10G\""
par Eastleigh_5GNet.gnb3.x2$o[3].channel disabled false
attr mutable ""
par Eastleigh_5GNet.gnb3.x2$o[3].channel delay 5e-08s
attr mutable ""
attr unit s
par Eastleigh_5GNet.gnb3.x2$o[3].channel datarate 1e+10bps
attr mutable ""
attr unit bps
par Eastleigh_5GNet.gnb3.x2$o[3].channel ber 0
attr mutable ""
par Eastleigh_5GNet.gnb3.x2$o[3].channel per 0
attr mutable ""
par Eastleigh_5GNet.gnb3.x2$o[3].channel length 10m
attr unit m
par Eastleigh_5GNet.gnb6.x2$o[0].channel typename "\"inet.node.ethernet.Eth10G\""
par Eastleigh_5GNet.gnb6.x2$o[0].channel disabled false
attr mutable ""
par Eastleigh_5GNet.gnb6.x2$o[0].channel delay 5e-08s
attr mutable ""
attr unit s
par Eastleigh_5GNet.gnb6.x2$o[0].channel datarate 1e+10bps
attr mutable ""
attr unit bps
par Eastleigh_5GNet.gnb6.x2$o[0].channel ber 0
attr mutable ""
par Eastleigh_5GNet.gnb6.x2$o[0].channel per 0
attr mutable ""
par Eastleigh_5GNet.gnb6.x2$o[0].channel length 10m
attr unit m
par Eastleigh_5GNet.gnb3.x2$o[4].channel typename "\"inet.node.ethernet.Eth10G\""
par Eastleigh_5GNet.gnb3.x2$o[4].channel disabled false
attr mutable ""
par Eastleigh_5GNet.gnb3.x2$o[4].channel delay 5e-08s
attr mutable ""
attr unit s
par Eastleigh_5GNet.gnb3.x2$o[4].channel datarate 1e+10bps
attr mutable ""
attr unit bps
par Eastleigh_5GNet.gnb3.x2$o[4].channel ber 0
attr mutable ""
par Eastleigh_5GNet.gnb3.x2$o[4].channel per 0
attr mutable ""
par Eastleigh_5GNet.gnb3.x2$o[4].channel length 10m
attr unit m
par Eastleigh_5GNet.gnb7.x2$o[0].channel typename "\"inet.node.ethernet.Eth10G\""
par Eastleigh_5GNet.gnb7.x2$o[0].channel disabled false
attr mutable ""
par Eastleigh_5GNet.gnb7.x2$o[0].channel delay 5e-08s
attr mutable ""
attr unit s
par Eastleigh_5GNet.gnb7.x2$o[0].channel datarate 1e+10bps
attr mutable ""
attr unit bps
par Eastleigh_5GNet.gnb7.x2$o[0].channel ber 0
attr mutable ""
par Eastleigh_5GNet.gnb7.x2$o[0].channel per 0
attr mutable ""
par Eastleigh_5GNet.gnb7.x2$o[0].channel length 10m
attr unit m
par Eastleigh_5GNet.gnb4.x2$o[4].channel typename "\"inet.node.ethernet.Eth10G\""
par Eastleigh_5GNet.gnb4.x2$o[4].channel disabled false
attr mutable ""
par Eastleigh_5GNet.gnb4.x2$o[4].channel delay 5e-08s
attr mutable ""
attr unit s
par Eastleigh_5GNet.gnb4.x2$o[4].channel datarate 1e+10bps
attr mutable ""
attr unit bps
par Eastleigh_5GNet.gnb4.x2$o[4].channel ber 0
attr mutable ""
par Eastleigh_5GNet.gnb4.x2$o[4].channel per 0
attr mutable ""
par Eastleigh_5GNet.gnb4.x2$o[4].channel length 10m
attr unit m
par Eastleigh_5GNet.gnb5.x2$o[2].channel typename "\"inet.node.ethernet.Eth10G\""
par Eastleigh_5GNet.gnb5.x2$o[2].channel disabled false
attr mutable ""
par Eastleigh_5GNet.gnb5.x2$o[2].channel delay 5e-08s
attr mutable ""
attr unit s
par Eastleigh_5GNet.gnb5.x2$o[2].channel datarate 1e+10bps
attr mutable ""
attr unit bps
par Eastleigh_5GNet.gnb5.x2$o[2].channel ber 0
attr mutable ""
par Eastleigh_5GNet.gnb5.x2$o[2].channel per 0
attr mutable ""
par Eastleigh_5GNet.gnb5.x2$o[2].channel length 10m
attr unit m
par Eastleigh_5GNet.gnb4.x2$o[5].channel typename "\"inet.node.ethernet.Eth10G\""
par Eastleigh_5GNet.gnb4.x2$o[5].channel disabled false
attr mutable ""
par Eastleigh_5GNet.gnb4.x2$o[5].channel delay 5e-08s
attr mutable ""
attr unit s
par Eastleigh_5GNet.gnb4.x2$o[5].channel datarate 1e+10bps
attr mutable ""
attr unit bps
par Eastleigh_5GNet.gnb4.x2$o[5].channel ber 0
attr mutable ""
par Eastleigh_5GNet.gnb4.x2$o[5].channel per 0
attr mutable ""
par Eastleigh_5GNet.gnb4.x2$o[5].channel length 10m
attr unit m
par Eastleigh_5GNet.gnb7.x2$o[1].channel typename "\"inet.node.ethernet.Eth10G\""
par Eastleigh_5GNet.gnb7.x2$o[1].channel disabled false
attr mutable ""
par Eastleigh_5GNet.gnb7.x2$o[1].channel delay 5e-08s
attr mutable ""
attr unit s
par Eastleigh_5GNet.gnb7.x2$o[1].channel datarate 1e+10bps
attr mutable ""
attr unit bps
par Eastleigh_5GNet.gnb7.x2$o[1].channel ber 0
attr mutable ""
par Eastleigh_5GNet.gnb7.x2$o[1].channel per 0
attr mutable ""
par Eastleigh_5GNet.gnb7.x2$o[1].channel length 10m
attr unit m
par Eastleigh_5GNet.gnb4.x2$o[6].channel typename "\"inet.node.ethernet.Eth10G\""
par Eastleigh_5GNet.gnb4.x2$o[6].channel disabled false
attr mutable ""
par Eastleigh_5GNet.gnb4.x2$o[6].channel delay 5e-08s
attr mutable ""
attr unit s
par Eastleigh_5GNet.gnb4.x2$o[6].channel datarate 1e+10bps
attr mutable ""
attr unit bps
par Eastleigh_5GNet.gnb4.x2$o[6].channel ber 0
attr mutable ""
par Eastleigh_5GNet.gnb4.x2$o[6].channel per 0
attr mutable ""
par Eastleigh_5GNet.gnb4.x2$o[6].channel length 10m
attr unit m
par Eastleigh_5GNet.gnb6.x2$o[1].channel typename "\"inet.node.ethernet.Eth10G\""
par Eastleigh_5GNet.gnb6.x2$o[1].channel disabled false
attr mutable ""
par Eastleigh_5GNet.gnb6.x2$o[1].channel delay 5e-08s
attr mutable ""
attr unit s
par Eastleigh_5GNet.gnb6.x2$o[1].channel datarate 1e+10bps
attr mutable ""
attr unit bps
par Eastleigh_5GNet.gnb6.x2$o[1].channel ber 0
attr mutable ""
par Eastleigh_5GNet.gnb6.x2$o[1].channel per 0
attr mutable ""
par Eastleigh_5GNet.gnb6.x2$o[1].channel length 10m
attr unit m
par Eastleigh_5GNet.gnb4.x2$o[7].channel typename "\"inet.node.ethernet.Eth10G\""
par Eastleigh_5GNet.gnb4.x2$o[7].channel disabled false
attr mutable ""
par Eastleigh_5GNet.gnb4.x2$o[7].channel delay 5e-08s
attr mutable ""
attr unit s
par Eastleigh_5GNet.gnb4.x2$o[7].channel datarate 1e+10bps
attr mutable ""
attr unit bps
par Eastleigh_5GNet.gnb4.x2$o[7].channel ber 0
attr mutable ""
par Eastleigh_5GNet.gnb4.x2$o[7].channel per 0
attr mutable ""
par Eastleigh_5GNet.gnb4.x2$o[7].channel length 10m
attr unit m
par Eastleigh_5GNet.gnb8.x2$o[0].channel typename "\"inet.node.ethernet.Eth10G\""
par Eastleigh_5GNet.gnb8.x2$o[0].channel disabled false
attr mutable ""
par Eastleigh_5GNet.gnb8.x2$o[0].channel delay 5e-08s
attr mutable ""
attr unit s
par Eastleigh_5GNet.gnb8.x2$o[0].channel datarate 1e+10bps
attr mutable ""
attr unit bps
par Eastleigh_5GNet.gnb8.x2$o[0].channel ber 0
attr mutable ""
par Eastleigh_5GNet.gnb8.x2$o[0].channel per 0
attr mutable ""
par Eastleigh_5GNet.gnb8.x2$o[0].channel length 10m
attr unit m
par Eastleigh_5GNet.gnb5.x2$o[3].channel typename "\"inet.node.ethernet.Eth10G\""
par Eastleigh_5GNet.gnb5.x2$o[3].channel disabled false
attr mutable ""
par Eastleigh_5GNet.gnb5.x2$o[3].channel delay 5e-08s
attr mutable ""
attr unit s
par Eastleigh_5GNet.gnb5.x2$o[3].channel datarate 1e+10bps
attr mutable ""
attr unit bps
par Eastleigh_5GNet.gnb5.x2$o[3].channel ber 0
attr mutable ""
par Eastleigh_5GNet.gnb5.x2$o[3].channel per 0
attr mutable ""
par Eastleigh_5GNet.gnb5.x2$o[3].channel length 10m
attr unit m
par Eastleigh_5GNet.gnb8.x2$o[1].channel typename "\"inet.node.ethernet.Eth10G\""
par Eastleigh_5GNet.gnb8.x2$o[1].channel disabled false
attr mutable ""
par Eastleigh_5GNet.gnb8.x2$o[1].channel delay 5e-08s
attr mutable ""
attr unit s
par Eastleigh_5GNet.gnb8.x2$o[1].channel datarate 1e+10bps
attr mutable ""
attr unit bps
par Eastleigh_5GNet.gnb8.x2$o[1].channel ber 0
attr mutable ""
par Eastleigh_5GNet.gnb8.x2$o[1].channel per 0
attr mutable ""
par Eastleigh_5GNet.gnb8.x2$o[1].channel length 10m
attr unit m
par Eastleigh_5GNet.gnb5.x2$o[4].channel typename "\"inet.node.ethernet.Eth10G\""
par Eastleigh_5GNet.gnb5.x2$o[4].channel disabled false
attr mutable ""
par Eastleigh_5GNet.gnb5.x2$o[4].channel delay 5e-08s
attr mutable ""
attr unit s
par Eastleigh_5GNet.gnb5.x2$o[4].channel datarate 1e+10bps
attr mutable ""
attr unit bps
par Eastleigh_5GNet.gnb5.x2$o[4].channel ber 0
attr mutable ""
par Eastleigh_5GNet.gnb5.x2$o[4].channel per 0
attr mutable ""
par Eastleigh_5GNet.gnb5.x2$o[4].channel length 10m
attr unit m
par Eastleigh_5GNet.gnb7.x2$o[2].channel typename "\"inet.node.ethernet.Eth10G\""
par Eastleigh_5GNet.gnb7.x2$o[2].channel disabled false
attr mutable ""
par Eastleigh_5GNet.gnb7.x2$o[2].channel delay 5e-08s
attr mutable ""
attr unit s
par Eastleigh_5GNet.gnb7.x2$o[2].channel datarate 1e+10bps
attr mutable ""
attr unit bps
par Eastleigh_5GNet.gnb7.x2$o[2].channel ber 0
attr mutable ""
par Eastleigh_5GNet.gnb7.x2$o[2].channel per 0
attr mutable ""
par Eastleigh_5GNet.gnb7.x2$o[2].channel length 10m
attr unit m
par Eastleigh_5GNet.gnb6.x2$o[2].channel typename "\"inet.node.ethernet.Eth10G\""
par Eastleigh_5GNet.gnb6.x2$o[2].channel disabled false
attr mutable ""
par Eastleigh_5GNet.gnb6.x2$o[2].channel delay 5e-08s
attr mutable ""
attr unit s
par Eastleigh_5GNet.gnb6.x2$o[2].channel datarate 1e+10bps
attr mutable ""
attr unit bps
par Eastleigh_5GNet.gnb6.x2$o[2].channel ber 0
attr mutable ""
par Eastleigh_5GNet.gnb6.x2$o[2].channel per 0
attr mutable ""
par Eastleigh_5GNet.gnb6.x2$o[2].channel length 10m
attr unit m
par Eastleigh_5GNet.gnb7.x2$o[3].channel typename "\"inet.node.ethernet.Eth10G\""
par Eastleigh_5GNet.gnb7.x2$o[3].channel disabled false
attr mutable ""
par Eastleigh_5GNet.gnb7.x2$o[3].channel delay 5e-08s
attr mutable ""
attr unit s
par Eastleigh_5GNet.gnb7.x2$o[3].channel datarate 1e+10bps
attr mutable ""
attr unit bps
par Eastleigh_5GNet.gnb7.x2$o[3].channel ber 0
attr mutable ""
par Eastleigh_5GNet.gnb7.x2$o[3].channel per 0
attr mutable ""
par Eastleigh_5GNet.gnb7.x2$o[3].channel length 10m
attr unit m
par Eastleigh_5GNet.gnb7.x2$o[4].channel typename "\"inet.node.ethernet.Eth10G\""
par Eastleigh_5GNet.gnb7.x2$o[4].channel disabled false
attr mutable ""
par Eastleigh_5GNet.gnb7.x2$o[4].channel delay 5e-08s
attr mutable ""
attr unit s
par Eastleigh_5GNet.gnb7.x2$o[4].channel datarate 1e+10bps
attr mutable ""
attr unit bps
par Eastleigh_5GNet.gnb7.x2$o[4].channel ber 0
attr mutable ""
par Eastleigh_5GNet.gnb7.x2$o[4].channel per 0
attr mutable ""
par Eastleigh_5GNet.gnb7.x2$o[4].channel length 10m
attr unit m
par Eastleigh_5GNet.gnb8.x2$o[2].channel typename "\"inet.node.ethernet.Eth10G\""
par Eastleigh_5GNet.gnb8.x2$o[2].channel disabled false
attr mutable ""
par Eastleigh_5GNet.gnb8.x2$o[2].channel delay 5e-08s
attr mutable ""
attr unit s
par Eastleigh_5GNet.gnb8.x2$o[2].channel datarate 1e+10bps
attr mutable ""
attr unit bps
par Eastleigh_5GNet.gnb8.x2$o[2].channel ber 0
attr mutable ""
par Eastleigh_5GNet.gnb8.x2$o[2].channel per 0
attr mutable ""
par Eastleigh_5GNet.gnb8.x2$o[2].channel length 10m
attr unit m
par Eastleigh_5GNet.channelControl typename "\"simu5g.world.radio.LteChannelControl\""
par Eastleigh_5GNet.channelControl coreDebug false
par Eastleigh_5GNet.channelControl pMax 20mW
attr unit mW
par Eastleigh_5GNet.channelControl sat -110dBm
attr unit dBm
par Eastleigh_5GNet.channelControl alpha 2
par Eastleigh_5GNet.channelControl carrierFrequency 2.4e+09Hz
attr unit Hz
par Eastleigh_5GNet.channelControl numChannels 1
par Eastleigh_5GNet.channelControl propagationModel "\"FreeSpaceModel\""
attr enum FreeSpaceModel,TwoRayGroundModel,RiceModel,RayleighModel,NakagamiModel,LogNormalShadowingModel
par Eastleigh_5GNet.configurator typename "\"inet.networklayer.configurator.ipv4.Ipv4NetworkConfigurator\""
par Eastleigh_5GNet.configurator minLinkWeight 0.001
par Eastleigh_5GNet.configurator configureIsolatedNetworksSeparatly false
par Eastleigh_5GNet.configurator config "<config>...</config> at content:1"
par Eastleigh_5GNet.configurator assignAddresses true
par Eastleigh_5GNet.configurator assignUniqueAddresses true
par Eastleigh_5GNet.configurator assignDisjunctSubnetAddresses true
par Eastleigh_5GNet.configurator addStaticRoutes true
par Eastleigh_5GNet.configurator addDefaultRoutes true
par Eastleigh_5GNet.configurator addSubnetRoutes true
par Eastleigh_5GNet.configurator addDirectRoutes true
par Eastleigh_5GNet.configurator optimizeRoutes true
par Eastleigh_5GNet.configurator dumpTopology false
par Eastleigh_5GNet.configurator dumpLinks false
par Eastleigh_5GNet.configurator dumpAddresses false
par Eastleigh_5GNet.configurator dumpRoutes false
par Eastleigh_5GNet.configurator dumpConfig "\"\""
par Eastleigh_5GNet.binder typename "\"simu5g.common.binder.Binder\""
par Eastleigh_5GNet.binder blerShift 0
par Eastleigh_5GNet.binder maxDataRatePerRb 1.16Mbps
attr unit Mbps
par Eastleigh_5GNet.binder printTrafficGeneratorConfig false
par Eastleigh_5GNet.carrierAggregation.componentCarrier[0] typename "\"simu5g.common.carrierAggregation.ComponentCarrier\""
par Eastleigh_5GNet.carrierAggregation.componentCarrier[0] carrierFrequency 2GHz
attr unit GHz
par Eastleigh_5GNet.carrierAggregation.componentCarrier[0] numBands 6
par Eastleigh_5GNet.carrierAggregation.componentCarrier[0] numerologyIndex 0
par Eastleigh_5GNet.carrierAggregation.componentCarrier[0] useTdd false
par Eastleigh_5GNet.carrierAggregation.componentCarrier[0] tddNumSymbolsDl 7
par Eastleigh_5GNet.carrierAggregation.componentCarrier[0] tddNumSymbolsUl 7
par Eastleigh_5GNet.carrierAggregation typename "\"simu5g.common.carrierAggregation.CarrierAggregation\""
par Eastleigh_5GNet.carrierAggregation numComponentCarriers 1
par Eastleigh_5GNet.server.pppg$i[0].channel typename "\"ned.IdealChannel\""
par Eastleigh_5GNet.server.ppp[0].phys$o.channel typename "\"ned.IdealChannel\""
par Eastleigh_5GNet.server.interfaceTable typename "\"inet.networklayer.common.InterfaceTable\""
par Eastleigh_5GNet.server.interfaceTable displayAddresses false
par Eastleigh_5GNet.server.cb typename "\"inet.common.MessageDispatcher\""
par Eastleigh_5GNet.server.cb displayStringTextFormat "\"processed %p pk (%l)\""
par Eastleigh_5GNet.server.cb forwardServiceRegistration true
par Eastleigh_5GNet.server.cb forwardProtocolRegistration true
par Eastleigh_5GNet.server.bl typename "\"inet.common.MessageDispatcher\""
par Eastleigh_5GNet.server.bl displayStringTextFormat "\"processed %p pk (%l)\""
par Eastleigh_5GNet.server.bl forwardServiceRegistration true
par Eastleigh_5GNet.server.bl forwardProtocolRegistration true
par Eastleigh_5GNet.server.li typename "\"inet.common.MessageDispatcher\""
par Eastleigh_5GNet.server.li displayStringTextFormat "\"processed %p pk (%l)\""
par Eastleigh_5GNet.server.li forwardServiceRegistration true
par Eastleigh_5GNet.server.li forwardProtocolRegistration true
par Eastleigh_5GNet.server.lo[0].upperLayerIn.channel typename "\"ned.IdealChannel\""
par Eastleigh_5GNet.server.lo[0].lo.upperLayerOut.channel typename "\"ned.IdealChannel\""
par Eastleigh_5GNet.server.lo[0].lo typename "\"inet.linklayer.loopback.Loopback\""
par Eastleigh_5GNet.server.lo[0].lo interfaceTableModule "\"Eastleigh_5GNet.server.interfaceTable\""
par Eastleigh_5GNet.server.lo[0].lo mtu 4470B
attr unit B
scalar Eastleigh_5GNet.server.lo[0].lo rcvdPkFromHl:count 0
attr interpolationmode none
attr recordingmode count
attr source packetReceivedFromUpper
attr title "packets received from higher layer, count"
scalar Eastleigh_5GNet.server.lo[0].lo rcvdPkFromHl:sum(packetBytes) 0
attr interpolationmode none
attr recordingmode sum(packetBytes)
attr source packetReceivedFromUpper
attr title "packets received from higher layer, sum(packetBytes)"
scalar Eastleigh_5GNet.server.lo[0].lo passedUpPk:count 0
attr interpolationmode none
attr recordingmode count
attr source packetSentToUpper
attr title "packets passed to higher layer, count"
scalar Eastleigh_5GNet.server.lo[0].lo passedUpPk:sum(packetBytes) 0
attr interpolationmode none
attr recordingmode sum(packetBytes)
attr source packetSentToUpper
attr title "packets passed to higher layer, sum(packetBytes)"
par Eastleigh_5GNet.server.lo[0] typename "\"inet.linklayer.loopback.LoopbackInterface\""
par Eastleigh_5GNet.server.lo[0] displayStringTextFormat "\"%a (%i)\\n%m\""
par Eastleigh_5GNet.server.lo[0] recordPcap false
par Eastleigh_5GNet.server.lo[0] numPcapRecorders 0
par Eastleigh_5GNet.server.lo[0] interfaceTableModule "\"Eastleigh_5GNet.server.interfaceTable\""
scalar Eastleigh_5GNet.server.lo[0] packetDropInterfaceDown:count 0
attr interpolationmode none
attr recordingmode count
attr source packetDropReasonIsInterfaceDown(packetDropped)
attr title "packet drops: interface down, count"
scalar Eastleigh_5GNet.server.lo[0] packetDropInterfaceDown:sum(packetBytes) 0
attr interpolationmode none
attr recordingmode sum(packetBytes)
attr source packetDropReasonIsInterfaceDown(packetDropped)
attr title "packet drops: interface down, sum(packetBytes)"
scalar Eastleigh_5GNet.server.lo[0] packetDropNoCarrier:count 0
attr interpolationmode none
attr recordingmode count
attr source packetDropReasonIsNoCarrier(packetDropped)
attr title "packet drops: no carrier, count"
scalar Eastleigh_5GNet.server.lo[0] packetDropNoCarrier:sum(packetBytes) 0
attr interpolationmode none
attr recordingmode sum(packetBytes)
attr source packetDropReasonIsNoCarrier(packetDropped)
attr title "packet drops: no carrier, sum(packetBytes)"
par Eastleigh_5GNet.server.ppp[0].phys$i.channel typename "\"ned.IdealChannel\""
par Eastleigh_5GNet.server.ppp[0].ppp.phys$o.channel typename "\"ned.IdealChannel\""
par Eastleigh_5GNet.server.ppp[0].ppp.upperLayerOut.channel typename "\"ned.IdealChannel\""
par Eastleigh_5GNet.server.ppp[0].upperLayerIn.channel typename "\"ned.IdealChannel\""
par Eastleigh_5GNet.server.ppp[0].queue typename "\"inet.queueing.queue.DropTailQueue\""
par Eastleigh_5GNet.server.ppp[0].queue displayStringTextFormat "\"contains %p pk (%l) pushed %u\\npulled %o removed %r dropped %d\""
par Eastleigh_5GNet.server.ppp[0].queue packetCapacity 10000
par Eastleigh_5GNet.server.ppp[0].queue dataCapacity -1b
attr unit b
par Eastleigh_5GNet.server.ppp[0].queue dropperClass "\"inet::queueing::PacketAtCollectionEndDropper\""
par Eastleigh_5GNet.server.ppp[0].queue comparatorClass "\"\""
par Eastleigh_5GNet.server.ppp[0].queue bufferModule "\"\""
scalar Eastleigh_5GNet.server.ppp[0].queue queueLength:last 0
attr autoWarmupFilter false
attr interpolationmode sample-hold
attr recordingmode last
attr source "warmup(atomic(constant0(packetPushEnded) + count(packetPushStarted) - count(packetPulled) - count(packetRemoved) - count(packetDropped)))"
attr title "queue length, last"
attr unit pk
scalar Eastleigh_5GNet.server.ppp[0].queue queueLength:max 0
attr autoWarmupFilter false
attr interpolationmode sample-hold
attr recordingmode max
attr source "warmup(atomic(constant0(packetPushEnded) + count(packetPushStarted) - count(packetPulled) - count(packetRemoved) - count(packetDropped)))"
attr title "queue length, max"
attr unit pk
scalar Eastleigh_5GNet.server.ppp[0].queue queueLength:timeavg 0
attr autoWarmupFilter false
attr interpolationmode sample-hold
attr recordingmode timeavg
attr source "warmup(atomic(constant0(packetPushEnded) + count(packetPushStarted) - count(packetPulled) - count(packetRemoved) - count(packetDropped)))"
attr title "queue length, timeavg"
attr unit pk
scalar Eastleigh_5GNet.server.ppp[0].queue queueBitLength:last 0
attr autoWarmupFilter false
attr interpolationmode sample-hold
attr recordingmode last
attr source "warmup(atomic(constant0(packetPushEnded) + sum(packetLength(packetPushStarted)) - sum(packetLength(packetPulled)) - sum(packetLength(packetRemoved)) - sum(packetLength(packetDropped))))"
attr title "queue bit length, last"
attr unit b
scalar Eastleigh_5GNet.server.ppp[0].queue queueBitLength:max 0
attr autoWarmupFilter false
attr interpolationmode sample-hold
attr recordingmode max
attr source "warmup(atomic(constant0(packetPushEnded) + sum(packetLength(packetPushStarted)) - sum(packetLength(packetPulled)) - sum(packetLength(packetRemoved)) - sum(packetLength(packetDropped))))"
attr title "queue bit length, max"
attr unit b
scalar Eastleigh_5GNet.server.ppp[0].queue queueBitLength:timeavg 0
attr autoWarmupFilter false
attr interpolationmode sample-hold
attr recordingmode timeavg
attr source "warmup(atomic(constant0(packetPushEnded) + sum(packetLength(packetPushStarted)) - sum(packetLength(packetPulled)) - sum(packetLength(packetRemoved)) - sum(packetLength(packetDropped))))"
attr title "queue bit length, timeavg"
attr unit b
statistic Eastleigh_5GNet.server.ppp[0].queue queueingTime:histogram
field count 0
field mean -nan
field stddev -nan
field min -nan
field max -nan
field sum 0
field sqrsum 0
attr interpolationmode none
attr recordingmode histogram
attr source queueingTime(packetPulled)
attr title "queueing times"
attr unit s
bin	-inf	0
bin	0	0
bin	1	0
scalar Eastleigh_5GNet.server.ppp[0].queue outgoingPackets:count 0
attr recordingmode count
attr source packetPulled
attr title "outgoing packets, count"
attr unit pk
scalar Eastleigh_5GNet.server.ppp[0].queue outgoingPacketLengths:sum 0
attr interpolationmode none
attr recordingmode sum
attr source packetLength(packetPulled)
attr title "outgoing packet lengths, sum"
attr unit b
statistic Eastleigh_5GNet.server.ppp[0].queue outgoingPacketLengths:histogram
field count 0
field mean -nan
field stddev -nan
field min -nan
field max -nan
field sum 0
field sqrsum 0
attr interpolationmode none
attr recordingmode histogram
attr source packetLength(packetPulled)
attr title "outgoing packet lengths"
attr unit b
bin	-inf	0
bin	0	0
bin	1	0
statistic Eastleigh_5GNet.server.ppp[0].queue flowQueueingTime:histogram
field count 0
field mean -nan
field stddev -nan
field min -nan
field max -nan
field sum 0
field sqrsum 0
attr interpolationmode none
attr recordingmode histogram
attr source queueingTime(demuxFlow(packetPulled))
attr title "flow queueing times"
attr unit s
bin	-inf	0
bin	0	0
bin	1	0
scalar Eastleigh_5GNet.server.ppp[0].queue incomingPackets:count 0
attr recordingmode count
attr source packetPushStarted
attr title "incoming packets, count"
attr unit pk
scalar Eastleigh_5GNet.server.ppp[0].queue incomingPacketLengths:sum 0
attr interpolationmode none
attr recordingmode sum
attr source packetLength(packetPushStarted)
attr title "incoming packet lengths, sum"
attr unit b
statistic Eastleigh_5GNet.server.ppp[0].queue incomingPacketLengths:histogram
field count 0
field mean -nan
field stddev -nan
field min -nan
field max -nan
field sum 0
field sqrsum 0
attr interpolationmode none
attr recordingmode histogram
attr source packetLength(packetPushStarted)
attr title "incoming packet lengths"
attr unit b
bin	-inf	0
bin	0	0
bin	1	0
scalar Eastleigh_5GNet.server.ppp[0].queue droppedPacketsQueueOverflow:count 0
attr interpolationmode none
attr recordingmode count
attr source packetDropReasonIsQueueOverflow(packetDropped)
attr title "dropped packets: queue overflow, count"
attr unit pk
scalar Eastleigh_5GNet.server.ppp[0].queue droppedPacketLengthsQueueOverflow:sum 0
attr interpolationmode none
attr recordingmode sum
attr source packetLength(packetDropReasonIsQueueOverflow(packetDropped))
attr title "dropped packet lengths: queue overflow, sum"
attr unit b
par Eastleigh_5GNet.server.ppp[0].ppp typename "\"inet.linklayer.ppp.Ppp\""
par Eastleigh_5GNet.server.ppp[0].ppp interfaceTableModule "\"Eastleigh_5GNet.server.interfaceTable\""
par Eastleigh_5GNet.server.ppp[0].ppp displayStringTextFormat "\"rate: %b\\nsent: %s, rcvd: %r\\nqueue: %q, drop: %d\""
par Eastleigh_5GNet.server.ppp[0].ppp sendRawBytes false
par Eastleigh_5GNet.server.ppp[0].ppp mtu 4470B
attr unit B
par Eastleigh_5GNet.server.ppp[0].ppp stopOperationExtraTime -1s
attr unit s
par Eastleigh_5GNet.server.ppp[0].ppp stopOperationTimeout 2s
attr unit s
scalar Eastleigh_5GNet.server.ppp[0].ppp transmissionState:timeavg 0
attr interpolationmode sample-hold
attr recordingmode timeavg
attr source transmissionStateChanged
attr title "tx state, timeavg"
scalar Eastleigh_5GNet.server.ppp[0].ppp rxPkOk:count 156
attr interpolationmode none
attr recordingmode count
attr source rxPkOk
attr title "packets received OK, count"
scalar Eastleigh_5GNet.server.ppp[0].ppp rxPkOk:sum(packetBytes) 21060
attr interpolationmode none
attr recordingmode sum(packetBytes)
attr source rxPkOk
attr title "packets received OK, sum(packetBytes)"
scalar Eastleigh_5GNet.server.ppp[0].ppp txPk:count 0
attr interpolationmode none
attr recordingmode count
attr source packetSentToLower
attr title "packets transmitted, count"
scalar Eastleigh_5GNet.server.ppp[0].ppp txPk:sum(packetBytes) 0
attr interpolationmode none
attr recordingmode sum(packetBytes)
attr source packetSentToLower
attr title "packets transmitted, sum(packetBytes)"
scalar Eastleigh_5GNet.server.ppp[0].ppp rcvdPkFromHl:count 0
attr interpolationmode none
attr recordingmode count
attr source packetReceivedFromUpper
attr title "packets received from higher layer, count"
scalar Eastleigh_5GNet.server.ppp[0].ppp rcvdPkFromHl:sum(packetBytes) 0
attr interpolationmode none
attr recordingmode sum(packetBytes)
attr source packetReceivedFromUpper
attr title "packets received from higher layer, sum(packetBytes)"
scalar Eastleigh_5GNet.server.ppp[0].ppp passedUpPk:count 156
attr interpolationmode none
attr recordingmode count
attr source packetSentToUpper
attr title "packets passed to higher layer, count"
scalar Eastleigh_5GNet.server.ppp[0].ppp passedUpPk:sum(packetBytes) 19968
attr interpolationmode none
attr recordingmode sum(packetBytes)
attr source packetSentToUpper
attr title "packets passed to higher layer, sum(packetBytes)"
scalar Eastleigh_5GNet.server.ppp[0].ppp packetDropIncorrectlyReceived:count 0
attr interpolationmode none
attr recordingmode count
attr source packetDropReasonIsIncorrectlyReceived(packetDropped)
attr title "packet drop: incorrectly received, count"
scalar Eastleigh_5GNet.server.ppp[0].ppp packetDropIncorrectlyReceived:sum(packetBytes) 0
attr interpolationmode none
attr recordingmode sum(packetBytes)
attr source packetDropReasonIsIncorrectlyReceived(packetDropped)
attr title "packet drop: incorrectly received, sum(packetBytes)"
scalar Eastleigh_5GNet.server.ppp[0].ppp packetDropInterfaceDown:count 0
attr interpolationmode none
attr recordingmode count
attr source packetDropReasonIsInterfaceDown(packetDropped)
attr title "packet drop: interface down, count"
scalar Eastleigh_5GNet.server.ppp[0].ppp packetDropInterfaceDown:sum(packetBytes) 0
attr interpolationmode none
attr recordingmode sum(packetBytes)
attr source packetDropReasonIsInterfaceDown(packetDropped)
attr title "packet drop: interface down, sum(packetBytes)"
par Eastleigh_5GNet.server.ppp[0] typename "\"inet.linklayer.ppp.PppInterface\""
par Eastleigh_5GNet.server.ppp[0] displayStringTextFormat "\"%a (%i)\\n%m\""
par Eastleigh_5GNet.server.ppp[0] recordPcap false
par Eastleigh_5GNet.server.ppp[0] numPcapRecorders 0
par Eastleigh_5GNet.server.ppp[0] interfaceTableModule "\"Eastleigh_5GNet.server.interfaceTable\""
scalar Eastleigh_5GNet.server.ppp[0] packetDropInterfaceDown:count 0
attr interpolationmode none
attr recordingmode count
attr source packetDropReasonIsInterfaceDown(packetDropped)
attr title "packet drops: interface down, count"
scalar Eastleigh_5GNet.server.ppp[0] packetDropInterfaceDown:sum(packetBytes) 0
attr interpolationmode none
attr recordingmode sum(packetBytes)
attr source packetDropReasonIsInterfaceDown(packetDropped)
attr title "packet drops: interface down, sum(packetBytes)"
scalar Eastleigh_5GNet.server.ppp[0] packetDropNoCarrier:count 0
attr interpolationmode none
attr recordingmode count
attr source packetDropReasonIsNoCarrier(packetDropped)
attr title "packet drops: no carrier, count"
scalar Eastleigh_5GNet.server.ppp[0] packetDropNoCarrier:sum(packetBytes) 0
attr interpolationmode none
attr recordingmode sum(packetBytes)
attr source packetDropReasonIsNoCarrier(packetDropped)
attr title "packet drops: no carrier, sum(packetBytes)"
par Eastleigh_5GNet.server.ipv4.transportIn.channel typename "\"ned.IdealChannel\""
par Eastleigh_5GNet.server.ipv4.up.out[0].channel typename "\"ned.IdealChannel\""
par Eastleigh_5GNet.server.ipv4.lp.out[2].channel typename "\"ned.IdealChannel\""
par Eastleigh_5GNet.server.ipv4.ifIn.channel typename "\"ned.IdealChannel\""
par Eastleigh_5GNet.server.ipv4.configurator typename "\"inet.networklayer.configurator.ipv4.Ipv4NodeConfigurator\""
par Eastleigh_5GNet.server.ipv4.configurator interfaceTableModule "\"Eastleigh_5GNet.server.interfaceTable\""
par Eastleigh_5GNet.server.ipv4.configurator routingTableModule "\"Eastleigh_5GNet.server.ipv4.routingTable\""
par Eastleigh_5GNet.server.ipv4.configurator networkConfiguratorModule "\"configurator\""
par Eastleigh_5GNet.server.ipv4.configurator configureRoutingTable true
par Eastleigh_5GNet.server.ipv4.routingTable typename "\"inet.networklayer.ipv4.Ipv4RoutingTable\""
par Eastleigh_5GNet.server.ipv4.routingTable interfaceTableModule "\"Eastleigh_5GNet.server.interfaceTable\""
par Eastleigh_5GNet.server.ipv4.routingTable routerId "\"auto\""
par Eastleigh_5GNet.server.ipv4.routingTable netmaskRoutes "\"*\""
par Eastleigh_5GNet.server.ipv4.routingTable forwarding false
par Eastleigh_5GNet.server.ipv4.routingTable multicastForwarding false
par Eastleigh_5GNet.server.ipv4.routingTable useAdminDist false
par Eastleigh_5GNet.server.ipv4.routingTable routingFile "\"\""
par Eastleigh_5GNet.server.ipv4.natTable typename "\"inet.networklayer.ipv4.Ipv4NatTable\""
par Eastleigh_5GNet.server.ipv4.natTable networkProtocolModule "\"^.ip\""
par Eastleigh_5GNet.server.ipv4.natTable config "<config/> at content:1"
par Eastleigh_5GNet.server.ipv4.up typename "\"inet.common.MessageDispatcher\""
par Eastleigh_5GNet.server.ipv4.up displayStringTextFormat "\"processed %p pk (%l)\""
par Eastleigh_5GNet.server.ipv4.up forwardServiceRegistration true
par Eastleigh_5GNet.server.ipv4.up forwardProtocolRegistration true
par Eastleigh_5GNet.server.ipv4.igmp typename "\"inet.networklayer.ipv4.Igmpv2\""
par Eastleigh_5GNet.server.ipv4.igmp interfaceTableModule "\"Eastleigh_5GNet.server.interfaceTable\""
par Eastleigh_5GNet.server.ipv4.igmp routingTableModule "\"Eastleigh_5GNet.server.ipv4.routingTable\""
par Eastleigh_5GNet.server.ipv4.igmp crcMode "\"declared\""
attr enum declared,computed
par Eastleigh_5GNet.server.ipv4.igmp enabled true
par Eastleigh_5GNet.server.ipv4.igmp robustnessVariable 2
par Eastleigh_5GNet.server.ipv4.igmp queryInterval 125s
attr unit s
par Eastleigh_5GNet.server.ipv4.igmp queryResponseInterval 10s
attr unit s
par Eastleigh_5GNet.server.ipv4.igmp groupMembershipInterval 260s
attr unit s
par Eastleigh_5GNet.server.ipv4.igmp otherQuerierPresentInterval 255s
attr unit s
par Eastleigh_5GNet.server.ipv4.igmp startupQueryInterval 31.25s
attr unit s
par Eastleigh_5GNet.server.ipv4.igmp startupQueryCount 2
par Eastleigh_5GNet.server.ipv4.igmp lastMemberQueryInterval 1s
attr unit s
par Eastleigh_5GNet.server.ipv4.igmp lastMemberQueryCount 2
par Eastleigh_5GNet.server.ipv4.igmp unsolicitedReportInterval 10s
attr unit s
par Eastleigh_5GNet.server.ipv4.icmp typename "\"inet.networklayer.ipv4.Icmp\""
par Eastleigh_5GNet.server.ipv4.icmp interfaceTableModule "\"Eastleigh_5GNet.server.interfaceTable\""
par Eastleigh_5GNet.server.ipv4.icmp routingTableModule "\"Eastleigh_5GNet.server.ipv4.routingTable\""
par Eastleigh_5GNet.server.ipv4.icmp crcMode "\"declared\""
attr enum declared,computed
attr mutable ""
par Eastleigh_5GNet.server.ipv4.icmp quoteLength 8B
attr mutable ""
attr unit B
par Eastleigh_5GNet.server.ipv4.mp typename "\"inet.common.MessageDispatcher\""
par Eastleigh_5GNet.server.ipv4.mp displayStringTextFormat "\"processed %p pk (%l)\""
par Eastleigh_5GNet.server.ipv4.mp forwardServiceRegistration true
par Eastleigh_5GNet.server.ipv4.mp forwardProtocolRegistration true
par Eastleigh_5GNet.server.ipv4.ip typename "\"inet.networklayer.ipv4.Ipv4\""
par Eastleigh_5GNet.server.ipv4.ip interfaceTableModule "\"Eastleigh_5GNet.server.interfaceTable\""
par Eastleigh_5GNet.server.ipv4.ip routingTableModule "\"Eastleigh_5GNet.server.ipv4.routingTable\""
par Eastleigh_5GNet.server.ipv4.ip arpModule "\"Eastleigh_5GNet.server.ipv4.arp\""
par Eastleigh_5GNet.server.ipv4.ip icmpModule "\"Eastleigh_5GNet.server.ipv4.icmp\""
par Eastleigh_5GNet.server.ipv4.ip crcMode "\"declared\""
attr enum declared,computed
par Eastleigh_5GNet.server.ipv4.ip timeToLive 32
par Eastleigh_5GNet.server.ipv4.ip multicastTimeToLive 32
par Eastleigh_5GNet.server.ipv4.ip fragmentTimeout 60s
attr unit s
par Eastleigh_5GNet.server.ipv4.ip limitedBroadcast false
par Eastleigh_5GNet.server.ipv4.ip directBroadcastInterfaces "\"\""
scalar Eastleigh_5GNet.server.ipv4.ip packetDropAddressResolutionFailed:count 0
attr interpolationmode none
attr recordingmode count
attr source packetDropReasonIsAddressResolutionFailed(packetDropped)
attr title "packet drop: address resolution failed, count"
scalar Eastleigh_5GNet.server.ipv4.ip packetDropAddressResolutionFailed:sum(packetBytes) 0
attr interpolationmode none
attr recordingmode sum(packetBytes)
attr source packetDropReasonIsAddressResolutionFailed(packetDropped)
attr title "packet drop: address resolution failed, sum(packetBytes)"
scalar Eastleigh_5GNet.server.ipv4.ip packetDropHopLimitReached:count 0
attr interpolationmode none
attr recordingmode count
attr source packetDropReasonIsHopLimitReached(packetDropped)
attr title "packet drop: hop limit reached, count"
scalar Eastleigh_5GNet.server.ipv4.ip packetDropHopLimitReached:sum(packetBytes) 0
attr interpolationmode none
attr recordingmode sum(packetBytes)
attr source packetDropReasonIsHopLimitReached(packetDropped)
attr title "packet drop: hop limit reached, sum(packetBytes)"
scalar Eastleigh_5GNet.server.ipv4.ip packetDropForwardingDisabled:count 0
attr interpolationmode none
attr recordingmode count
attr source packetDropReasonIsForwardingDisabled(packetDropped)
attr title "packet drop: forwarding disabled, count"
scalar Eastleigh_5GNet.server.ipv4.ip packetDropForwardingDisabled:sum(packetBytes) 0
attr interpolationmode none
attr recordingmode sum(packetBytes)
attr source packetDropReasonIsForwardingDisabled(packetDropped)
attr title "packet drop: forwarding disabled, sum(packetBytes)"
scalar Eastleigh_5GNet.server.ipv4.ip packetDropNoInterfaceFound:count 0
attr interpolationmode none
attr recordingmode count
attr source packetDropReasonIsNoInterfaceFound(packetDropped)
attr title "packet drop: no interface found, count"
scalar Eastleigh_5GNet.server.ipv4.ip packetDropNoInterfaceFound:sum(packetBytes) 0
attr interpolationmode none
attr recordingmode sum(packetBytes)
attr source packetDropReasonIsNoInterfaceFound(packetDropped)
attr title "packet drop: no interface found, sum(packetBytes)"
scalar Eastleigh_5GNet.server.ipv4.ip packetDropNoRouteFound:count 0
attr interpolationmode none
attr recordingmode count
attr source packetDropReasonIsNoRouteFound(packetDropped)
attr title "packet drop: no route found, count"
scalar Eastleigh_5GNet.server.ipv4.ip packetDropNoRouteFound:sum(packetBytes) 0
attr interpolationmode none
attr recordingmode sum(packetBytes)
attr source packetDropReasonIsNoRouteFound(packetDropped)
attr title "packet drop: no route found, sum(packetBytes)"
scalar Eastleigh_5GNet.server.ipv4.ip packetDropUndefined:count 0
attr interpolationmode none
attr recordingmode count
attr source packetDropReasonIsUndefined(packetDropped)
attr title "packet drop: undefined, count"
scalar Eastleigh_5GNet.server.ipv4.ip packetDropUndefined:sum(packetBytes) 0
attr interpolationmode none
attr recordingmode sum(packetBytes)
attr source packetDropReasonIsUndefined(packetDropped)
attr title "packet drop: undefined, sum(packetBytes)"
par Eastleigh_5GNet.server.ipv4.arp typename "\"inet.networklayer.arp.ipv4.Arp\""
par Eastleigh_5GNet.server.ipv4.arp interfaceTableModule "\"Eastleigh_5GNet.server.interfaceTable\""
par Eastleigh_5GNet.server.ipv4.arp routingTableModule "\"Eastleigh_5GNet.server.ipv4.routingTable\""
par Eastleigh_5GNet.server.ipv4.arp retryTimeout 1s
attr unit s
par Eastleigh_5GNet.server.ipv4.arp retryCount 3
par Eastleigh_5GNet.server.ipv4.arp cacheTimeout 120s
attr unit s
par Eastleigh_5GNet.server.ipv4.arp proxyArpInterfaces "\"\""
scalar Eastleigh_5GNet.server.ipv4.arp arpResolutionFailed:count 0
attr recordingmode count
attr title "ARP failed resolutions, count"
scalar Eastleigh_5GNet.server.ipv4.arp arpResolutionCompleted:count 0
attr recordingmode count
attr title "ARP completed resolutions, count"
scalar Eastleigh_5GNet.server.ipv4.arp arpResolutionInitiated:count 0
attr recordingmode count
attr title "ARP initiated resolutions, count"
scalar Eastleigh_5GNet.server.ipv4.arp arpReplySent:count 0
attr recordingmode count
attr source arpReplySent
attr title "ARP replies sent, count"
scalar Eastleigh_5GNet.server.ipv4.arp arpReplySent:sum(packetBytes) 0
attr recordingmode sum(packetBytes)
attr source arpReplySent
attr title "ARP replies sent, sum(packetBytes)"
scalar Eastleigh_5GNet.server.ipv4.arp arpRequestSent:count 0
attr recordingmode count
attr source arpRequestSent
attr title "ARP request sent, count"
scalar Eastleigh_5GNet.server.ipv4.arp arpRequestSent:sum(packetBytes) 0
attr recordingmode sum(packetBytes)
attr source arpRequestSent
attr title "ARP request sent, sum(packetBytes)"
par Eastleigh_5GNet.server.ipv4.lp typename "\"inet.common.MessageDispatcher\""
par Eastleigh_5GNet.server.ipv4.lp displayStringTextFormat "\"processed %p pk (%l)\""
par Eastleigh_5GNet.server.ipv4.lp forwardServiceRegistration true
par Eastleigh_5GNet.server.ipv4.lp forwardProtocolRegistration true
par Eastleigh_5GNet.server.ipv4 typename "\"inet.networklayer.ipv4.Ipv4NetworkLayer\""
par Eastleigh_5GNet.server.ipv4 forwarding false
par Eastleigh_5GNet.server.ipv4 multicastForwarding false
par Eastleigh_5GNet.server.ipv4 interfaceTableModule "\"Eastleigh_5GNet.server.interfaceTable\""
par Eastleigh_5GNet.server.ipv4 displayStringTextFormat "\"%i\""
par Eastleigh_5GNet.server.nl typename "\"inet.common.MessageDispatcher\""
par Eastleigh_5GNet.server.nl displayStringTextFormat "\"processed %p pk (%l)\""
par Eastleigh_5GNet.server.nl forwardServiceRegistration true
par Eastleigh_5GNet.server.nl forwardProtocolRegistration true
par Eastleigh_5GNet.server.udp typename "\"inet.transportlayer.udp.Udp\""
par Eastleigh_5GNet.server.udp interfaceTableModule "\"Eastleigh_5GNet.server.interfaceTable\""
par Eastleigh_5GNet.server.udp icmpModule "\"^.ipv4.icmp\""
par Eastleigh_5GNet.server.udp icmpv6Module "\"^.ipv6.icmpv6\""
par Eastleigh_5GNet.server.udp crcMode "\"declared\""
attr enum disabled,declared,computed
par Eastleigh_5GNet.server.udp defaultMulticastLoop true
scalar Eastleigh_5GNet.server.udp packetReceived:count 155
attr interpolationmode none
attr recordingmode count
attr source packetReceived
attr title "packets received, count"
scalar Eastleigh_5GNet.server.udp packetReceived:sum(packetBytes) 16740
attr interpolationmode none
attr recordingmode sum(packetBytes)
attr source packetReceived
attr title "packets received, sum(packetBytes)"
scalar Eastleigh_5GNet.server.udp packetSent:count 0
attr interpolationmode none
attr recordingmode count
attr source packetSent
attr title "packets sent, count"
scalar Eastleigh_5GNet.server.udp packetSent:sum(packetBytes) 0
attr interpolationmode none
attr recordingmode sum(packetBytes)
attr source packetSent
attr title "packets sent, sum(packetBytes)"
scalar Eastleigh_5GNet.server.udp passedUpPk:count 155
attr interpolationmode none
attr recordingmode count
attr source packetSentToUpper
attr title "packets passed up, count"
scalar Eastleigh_5GNet.server.udp droppedPkWrongPort:count 0
attr interpolationmode none
attr recordingmode count
attr source packetDropReasonIsNoPortFound(packetDropped)
attr title "packets dropped (wrong port), count"
scalar Eastleigh_5GNet.server.udp droppedPkBadChecksum:count 0
attr interpolationmode none
attr recordingmode count
attr source packetDropReasonIsIncorrectlyReceived(packetDropped)
attr title "packets dropped (checksum error), count"
par Eastleigh_5GNet.server.tcp typename "\"inet.transportlayer.tcp.Tcp\""
par Eastleigh_5GNet.server.tcp crcMode "\"declared\""
attr enum declared,computed
par Eastleigh_5GNet.server.tcp advertisedWindow 7504
par Eastleigh_5GNet.server.tcp delayedAcksEnabled false
par Eastleigh_5GNet.server.tcp nagleEnabled true
par Eastleigh_5GNet.server.tcp limitedTransmitEnabled false
par Eastleigh_5GNet.server.tcp increasedIWEnabled false
par Eastleigh_5GNet.server.tcp sackSupport false
par Eastleigh_5GNet.server.tcp windowScalingSupport false
par Eastleigh_5GNet.server.tcp windowScalingFactor -1
par Eastleigh_5GNet.server.tcp timestampSupport false
par Eastleigh_5GNet.server.tcp mss 536
par Eastleigh_5GNet.server.tcp msl 120s
attr unit s
par Eastleigh_5GNet.server.tcp tcpAlgorithmClass "\"TcpReno\""
attr enum TcpVegas,TcpWestwood,TcpNewReno,TcpReno,TcpTahoe,TcpNoCongestionControl
par Eastleigh_5GNet.server.tcp useDataNotification false
par Eastleigh_5GNet.server.tcp dupthresh 3
par Eastleigh_5GNet.server.tcp initialSsthresh 4294967295
par Eastleigh_5GNet.server.tcp stopOperationExtraTime 0s
attr unit s
par Eastleigh_5GNet.server.tcp stopOperationTimeout 2s
attr unit s
par Eastleigh_5GNet.server.tcp ecnWillingness false
par Eastleigh_5GNet.server.tcp dctcpGamma 0.0625
par Eastleigh_5GNet.server.tn typename "\"inet.common.MessageDispatcher\""
par Eastleigh_5GNet.server.tn displayStringTextFormat "\"processed %p pk (%l)\""
par Eastleigh_5GNet.server.tn forwardServiceRegistration true
par Eastleigh_5GNet.server.tn forwardProtocolRegistration true
par Eastleigh_5GNet.server.app[0] typename "\"simu5g.apps.cbr.CbrReceiver\""
par Eastleigh_5GNet.server.app[0] localPort 3000
scalar Eastleigh_5GNet.server.app[0] cbrReceivedBytes:timeavg 100
attr recordingmode timeavg
attr source cbrReceivedBytesSignal
attr title "Bytes received at the application level, timeavg"
attr unit Bps
scalar Eastleigh_5GNet.server.app[0] cbrReceivedBytes:mean 100
attr recordingmode mean
attr source cbrReceivedBytesSignal
attr title "Bytes received at the application level, mean"
attr unit Bps
scalar Eastleigh_5GNet.server.app[0] cbrReceivedBytes:sum 15500
attr recordingmode sum
attr source cbrReceivedBytesSignal
attr title "Bytes received at the application level, sum"
attr unit Bps
scalar Eastleigh_5GNet.server.app[0] cbrReceivedThroughtput:timeavg -nan
attr recordingmode timeavg
attr source cbrReceivedThroughtputSignal
attr title "Throughput received at the application level, timeavg"
attr unit Bps
scalar Eastleigh_5GNet.server.app[0] cbrReceivedThroughtput:mean 4964.76537595
attr recordingmode mean
attr source cbrReceivedThroughtputSignal
attr title "Throughput received at the application level, mean"
attr unit Bps
scalar Eastleigh_5GNet.server.app[0] cbrReceivedThroughtput:sum 4964.76537595
attr recordingmode sum
attr source cbrReceivedThroughtputSignal
attr title "Throughput received at the application level, sum"
attr unit Bps
scalar Eastleigh_5GNet.server.app[0] cbrJitter:mean -nan
attr recordingmode mean
attr source cbrJitterSignal
attr title "Cbr Playout Loss, mean"
attr unit s
scalar Eastleigh_5GNet.server.app[0] cbrFrameDelay:mean 0.008481410495
attr recordingmode mean
attr source cbrFrameDelaySignal
attr title "Cbr Frame Delay, mean"
attr unit s
scalar Eastleigh_5GNet.server.app[0] cbrFrameLoss:mean 0.84422110552764
attr recordingmode mean
attr source cbrFrameLossSignal
attr title "Cbr Frame Loss, mean"
attr unit ratio
par Eastleigh_5GNet.server.at typename "\"inet.common.MessageDispatcher\""
par Eastleigh_5GNet.server.at displayStringTextFormat "\"processed %p pk (%l)\""
par Eastleigh_5GNet.server.at forwardServiceRegistration true
par Eastleigh_5GNet.server.at forwardProtocolRegistration true
par Eastleigh_5GNet.server typename "\"inet.node.inet.StandardHost\""
par Eastleigh_5GNet.server hasStatus false
par Eastleigh_5GNet.server osgModel "\"\""
par Eastleigh_5GNet.server osgModelColor "\"\""
par Eastleigh_5GNet.server canvasImage "\"\""
par Eastleigh_5GNet.server canvasImageColor "\"\""
par Eastleigh_5GNet.server recordPcap false
par Eastleigh_5GNet.server numPcapRecorders 0
par Eastleigh_5GNet.server numLoInterfaces 1
par Eastleigh_5GNet.server numWlanInterfaces 0
par Eastleigh_5GNet.server numEthInterfaces 0
par Eastleigh_5GNet.server numPppInterfaces 0
par Eastleigh_5GNet.server numTunInterfaces 0
par Eastleigh_5GNet.server numVirtInterfaces 0
par Eastleigh_5GNet.server fcsMode "\"declared\""
attr enum declared,computed
par Eastleigh_5GNet.server hasIpv4 true
par Eastleigh_5GNet.server hasIpv6 false
par Eastleigh_5GNet.server hasGn false
par Eastleigh_5GNet.server forwarding false
par Eastleigh_5GNet.server multicastForwarding false
par Eastleigh_5GNet.server hasUdp true
par Eastleigh_5GNet.server hasTcp true
par Eastleigh_5GNet.server hasSctp false
par Eastleigh_5GNet.server numApps 1
par Eastleigh_5GNet.router.pppg$i[0].channel typename "\"ned.IdealChannel\""
par Eastleigh_5GNet.router.ppp[0].phys$o.channel typename "\"ned.IdealChannel\""
par Eastleigh_5GNet.router.pppg$i[1].channel typename "\"ned.IdealChannel\""
par Eastleigh_5GNet.router.ppp[1].phys$o.channel typename "\"ned.IdealChannel\""
par Eastleigh_5GNet.router.interfaceTable typename "\"inet.networklayer.common.InterfaceTable\""
par Eastleigh_5GNet.router.interfaceTable displayAddresses false
par Eastleigh_5GNet.router.cb typename "\"inet.common.MessageDispatcher\""
par Eastleigh_5GNet.router.cb displayStringTextFormat "\"processed %p pk (%l)\""
par Eastleigh_5GNet.router.cb forwardServiceRegistration true
par Eastleigh_5GNet.router.cb forwardProtocolRegistration true
par Eastleigh_5GNet.router.bl typename "\"inet.common.MessageDispatcher\""
par Eastleigh_5GNet.router.bl displayStringTextFormat "\"processed %p pk (%l)\""
par Eastleigh_5GNet.router.bl forwardServiceRegistration true
par Eastleigh_5GNet.router.bl forwardProtocolRegistration true
par Eastleigh_5GNet.router.li typename "\"inet.common.MessageDispatcher\""
par Eastleigh_5GNet.router.li displayStringTextFormat "\"processed %p pk (%l)\""
par Eastleigh_5GNet.router.li forwardServiceRegistration true
par Eastleigh_5GNet.router.li forwardProtocolRegistration true
par Eastleigh_5GNet.router.lo[0].upperLayerIn.channel typename "\"ned.IdealChannel\""
par Eastleigh_5GNet.router.lo[0].lo.upperLayerOut.channel typename "\"ned.IdealChannel\""
par Eastleigh_5GNet.router.lo[0].lo typename "\"inet.linklayer.loopback.Loopback\""
par Eastleigh_5GNet.router.lo[0].lo interfaceTableModule "\"Eastleigh_5GNet.router.interfaceTable\""
par Eastleigh_5GNet.router.lo[0].lo mtu 4470B
attr unit B
scalar Eastleigh_5GNet.router.lo[0].lo rcvdPkFromHl:count 0
attr interpolationmode none
attr recordingmode count
attr source packetReceivedFromUpper
attr title "packets received from higher layer, count"
scalar Eastleigh_5GNet.router.lo[0].lo rcvdPkFromHl:sum(packetBytes) 0
attr interpolationmode none
attr recordingmode sum(packetBytes)
attr source packetReceivedFromUpper
attr title "packets received from higher layer, sum(packetBytes)"
scalar Eastleigh_5GNet.router.lo[0].lo passedUpPk:count 0
attr interpolationmode none
attr recordingmode count
attr source packetSentToUpper
attr title "packets passed to higher layer, count"
scalar Eastleigh_5GNet.router.lo[0].lo passedUpPk:sum(packetBytes) 0
attr interpolationmode none
attr recordingmode sum(packetBytes)
attr source packetSentToUpper
attr title "packets passed to higher layer, sum(packetBytes)"
par Eastleigh_5GNet.router.lo[0] typename "\"inet.linklayer.loopback.LoopbackInterface\""
par Eastleigh_5GNet.router.lo[0] displayStringTextFormat "\"%a (%i)\\n%m\""
par Eastleigh_5GNet.router.lo[0] recordPcap false
par Eastleigh_5GNet.router.lo[0] numPcapRecorders 0
par Eastleigh_5GNet.router.lo[0] interfaceTableModule "\"Eastleigh_5GNet.router.interfaceTable\""
scalar Eastleigh_5GNet.router.lo[0] packetDropInterfaceDown:count 0
attr interpolationmode none
attr recordingmode count
attr source packetDropReasonIsInterfaceDown(packetDropped)
attr title "packet drops: interface down, count"
scalar Eastleigh_5GNet.router.lo[0] packetDropInterfaceDown:sum(packetBytes) 0
attr interpolationmode none
attr recordingmode sum(packetBytes)
attr source packetDropReasonIsInterfaceDown(packetDropped)
attr title "packet drops: interface down, sum(packetBytes)"
scalar Eastleigh_5GNet.router.lo[0] packetDropNoCarrier:count 0
attr interpolationmode none
attr recordingmode count
attr source packetDropReasonIsNoCarrier(packetDropped)
attr title "packet drops: no carrier, count"
scalar Eastleigh_5GNet.router.lo[0] packetDropNoCarrier:sum(packetBytes) 0
attr interpolationmode none
attr recordingmode sum(packetBytes)
attr source packetDropReasonIsNoCarrier(packetDropped)
attr title "packet drops: no carrier, sum(packetBytes)"
par Eastleigh_5GNet.router.ppp[0].phys$i.channel typename "\"ned.IdealChannel\""
par Eastleigh_5GNet.router.ppp[0].ppp.phys$o.channel typename "\"ned.IdealChannel\""
par Eastleigh_5GNet.router.ppp[0].ppp.upperLayerOut.channel typename "\"ned.IdealChannel\""
par Eastleigh_5GNet.router.ppp[0].upperLayerIn.channel typename "\"ned.IdealChannel\""
par Eastleigh_5GNet.router.ppp[0].queue typename "\"inet.queueing.queue.DropTailQueue\""
par Eastleigh_5GNet.router.ppp[0].queue displayStringTextFormat "\"contains %p pk (%l) pushed %u\\npulled %o removed %r dropped %d\""
par Eastleigh_5GNet.router.ppp[0].queue packetCapacity 10000
par Eastleigh_5GNet.router.ppp[0].queue dataCapacity -1b
attr unit b
par Eastleigh_5GNet.router.ppp[0].queue dropperClass "\"inet::queueing::PacketAtCollectionEndDropper\""
par Eastleigh_5GNet.router.ppp[0].queue comparatorClass "\"\""
par Eastleigh_5GNet.router.ppp[0].queue bufferModule "\"\""
scalar Eastleigh_5GNet.router.ppp[0].queue queueLength:last 0
attr autoWarmupFilter false
attr interpolationmode sample-hold
attr recordingmode last
attr source "warmup(atomic(constant0(packetPushEnded) + count(packetPushStarted) - count(packetPulled) - count(packetRemoved) - count(packetDropped)))"
attr title "queue length, last"
attr unit pk
scalar Eastleigh_5GNet.router.ppp[0].queue queueLength:max 0
attr autoWarmupFilter false
attr interpolationmode sample-hold
attr recordingmode max
attr source "warmup(atomic(constant0(packetPushEnded) + count(packetPushStarted) - count(packetPulled) - count(packetRemoved) - count(packetDropped)))"
attr title "queue length, max"
attr unit pk
scalar Eastleigh_5GNet.router.ppp[0].queue queueLength:timeavg 0
attr autoWarmupFilter false
attr interpolationmode sample-hold
attr recordingmode timeavg
attr source "warmup(atomic(constant0(packetPushEnded) + count(packetPushStarted) - count(packetPulled) - count(packetRemoved) - count(packetDropped)))"
attr title "queue length, timeavg"
attr unit pk
scalar Eastleigh_5GNet.router.ppp[0].queue queueBitLength:last 0
attr autoWarmupFilter false
attr interpolationmode sample-hold
attr recordingmode last
attr source "warmup(atomic(constant0(packetPushEnded) + sum(packetLength(packetPushStarted)) - sum(packetLength(packetPulled)) - sum(packetLength(packetRemoved)) - sum(packetLength(packetDropped))))"
attr title "queue bit length, last"
attr unit b
scalar Eastleigh_5GNet.router.ppp[0].queue queueBitLength:max 0
attr autoWarmupFilter false
attr interpolationmode sample-hold
attr recordingmode max
attr source "warmup(atomic(constant0(packetPushEnded) + sum(packetLength(packetPushStarted)) - sum(packetLength(packetPulled)) - sum(packetLength(packetRemoved)) - sum(packetLength(packetDropped))))"
attr title "queue bit length, max"
attr unit b
scalar Eastleigh_5GNet.router.ppp[0].queue queueBitLength:timeavg 0
attr autoWarmupFilter false
attr interpolationmode sample-hold
attr recordingmode timeavg
attr source "warmup(atomic(constant0(packetPushEnded) + sum(packetLength(packetPushStarted)) - sum(packetLength(packetPulled)) - sum(packetLength(packetRemoved)) - sum(packetLength(packetDropped))))"
attr title "queue bit length, timeavg"
attr unit b
statistic Eastleigh_5GNet.router.ppp[0].queue queueingTime:histogram
field count 156
field mean 0
field stddev 0
[...]
par Eastleigh_5GNet.nrUe.cellularNic d2dCapable true
par Eastleigh_5GNet.nrUe.cellularNic dualConnectivityEnabled false
par Eastleigh_5GNet.nrUe.cellularNic numCarriers 1
par Eastleigh_5GNet.nrUe.cellularNic address "\"0A-AA-00-00-00-0A\""
attr mutable ""
par Eastleigh_5GNet.nrUe.cellularNic d2dInitialMode false
par Eastleigh_5GNet.nrUe.cellularNic NRMacType "\"NRMacUe\""
par Eastleigh_5GNet.nrUe.cellularNic NRPhyType "\"NRPhyUe\""
par Eastleigh_5GNet.nrUe.cellularNic NRChannelModelType "\"NRChannelModel_3GPP38_901\""
par Eastleigh_5GNet.nrUe.cellularNic NRPacketFlowManagerType "\"NRPacketFlowManagerUe\""
par Eastleigh_5GNet.nrUe.cellularNic numNRCarriers 1
scalar Eastleigh_5GNet.nrUe.cellularNic packetDropInterfaceDown:count 0
attr interpolationmode none
attr recordingmode count
attr source packetDropReasonIsInterfaceDown(packetDropped)
attr title "packet drops: interface down, count"
scalar Eastleigh_5GNet.nrUe.cellularNic packetDropInterfaceDown:sum(packetBytes) 0
attr interpolationmode none
attr recordingmode sum(packetBytes)
attr source packetDropReasonIsInterfaceDown(packetDropped)
attr title "packet drops: interface down, sum(packetBytes)"
scalar Eastleigh_5GNet.nrUe.cellularNic packetDropNoCarrier:count 0
attr interpolationmode none
attr recordingmode count
attr source packetDropReasonIsNoCarrier(packetDropped)
attr title "packet drops: no carrier, count"
scalar Eastleigh_5GNet.nrUe.cellularNic packetDropNoCarrier:sum(packetBytes) 0
attr interpolationmode none
attr recordingmode sum(packetBytes)
attr source packetDropReasonIsNoCarrier(packetDropped)
attr title "packet drops: no carrier, sum(packetBytes)"
par Eastleigh_5GNet.nrUe.encap typename "\"inet.linklayer.ethernet.basic.EthernetEncapsulation\""
par Eastleigh_5GNet.nrUe.encap registerProtocol true
par Eastleigh_5GNet.nrUe.encap interfaceTableModule "\"Eastleigh_5GNet.nrUe.interfaceTable\""
par Eastleigh_5GNet.nrUe.encap fcsMode "\"declared\""
attr enum declared,computed
par Eastleigh_5GNet.nrUe.encap stopOperationExtraTime -1s
attr unit s
par Eastleigh_5GNet.nrUe.encap stopOperationTimeout 2s
attr unit s
scalar Eastleigh_5GNet.nrUe.encap pauseSent:count 0
attr recordingmode count
attr title "pause sent, count"
scalar Eastleigh_5GNet.nrUe.encap pauseSent:sum 0
attr recordingmode sum
attr title "pause sent, sum"
scalar Eastleigh_5GNet.nrUe.encap decapPk:count 0
attr interpolationmode none
attr recordingmode count
attr source decapPk
attr title "packets decapsulated, count"
scalar Eastleigh_5GNet.nrUe.encap decapPk:sum(packetBytes) 0
attr interpolationmode none
attr recordingmode sum(packetBytes)
attr source decapPk
attr title "packets decapsulated, sum(packetBytes)"
scalar Eastleigh_5GNet.nrUe.encap encapPk:count 0
attr interpolationmode none
attr recordingmode count
attr source encapPk
attr title "packets encapsulated, count"
scalar Eastleigh_5GNet.nrUe.encap encapPk:sum(packetBytes) 0
attr interpolationmode none
attr recordingmode sum(packetBytes)
attr source encapPk
attr title "packets encapsulated, sum(packetBytes)"
par Eastleigh_5GNet.nrUe.ipv4.transportIn.channel typename "\"ned.IdealChannel\""
par Eastleigh_5GNet.nrUe.ipv4.up.out[0].channel typename "\"ned.IdealChannel\""
par Eastleigh_5GNet.nrUe.ipv4.lp.out[2].channel typename "\"ned.IdealChannel\""
par Eastleigh_5GNet.nrUe.ipv4.ifIn.channel typename "\"ned.IdealChannel\""
par Eastleigh_5GNet.nrUe.ipv4.configurator typename "\"inet.networklayer.configurator.ipv4.Ipv4NodeConfigurator\""
par Eastleigh_5GNet.nrUe.ipv4.configurator interfaceTableModule "\"Eastleigh_5GNet.nrUe.interfaceTable\""
par Eastleigh_5GNet.nrUe.ipv4.configurator routingTableModule "\"Eastleigh_5GNet.nrUe.ipv4.routingTable\""
par Eastleigh_5GNet.nrUe.ipv4.configurator networkConfiguratorModule "\"configurator\""
par Eastleigh_5GNet.nrUe.ipv4.configurator configureRoutingTable true
par Eastleigh_5GNet.nrUe.ipv4.routingTable typename "\"inet.networklayer.ipv4.Ipv4RoutingTable\""
par Eastleigh_5GNet.nrUe.ipv4.routingTable interfaceTableModule "\"Eastleigh_5GNet.nrUe.interfaceTable\""
par Eastleigh_5GNet.nrUe.ipv4.routingTable routerId "\"auto\""
par Eastleigh_5GNet.nrUe.ipv4.routingTable netmaskRoutes "\"*\""
par Eastleigh_5GNet.nrUe.ipv4.routingTable forwarding false
par Eastleigh_5GNet.nrUe.ipv4.routingTable multicastForwarding false
par Eastleigh_5GNet.nrUe.ipv4.routingTable useAdminDist false
par Eastleigh_5GNet.nrUe.ipv4.routingTable routingFile "\"\""
par Eastleigh_5GNet.nrUe.ipv4.natTable typename "\"inet.networklayer.ipv4.Ipv4NatTable\""
par Eastleigh_5GNet.nrUe.ipv4.natTable networkProtocolModule "\"^.ip\""
par Eastleigh_5GNet.nrUe.ipv4.natTable config "<config/> at content:1"
par Eastleigh_5GNet.nrUe.ipv4.up typename "\"inet.common.MessageDispatcher\""
par Eastleigh_5GNet.nrUe.ipv4.up displayStringTextFormat "\"processed %p pk (%l)\""
par Eastleigh_5GNet.nrUe.ipv4.up forwardServiceRegistration true
par Eastleigh_5GNet.nrUe.ipv4.up forwardProtocolRegistration true
par Eastleigh_5GNet.nrUe.ipv4.igmp typename "\"inet.networklayer.ipv4.Igmpv2\""
par Eastleigh_5GNet.nrUe.ipv4.igmp interfaceTableModule "\"Eastleigh_5GNet.nrUe.interfaceTable\""
par Eastleigh_5GNet.nrUe.ipv4.igmp routingTableModule "\"Eastleigh_5GNet.nrUe.ipv4.routingTable\""
par Eastleigh_5GNet.nrUe.ipv4.igmp crcMode "\"declared\""
attr enum declared,computed
par Eastleigh_5GNet.nrUe.ipv4.igmp enabled true
par Eastleigh_5GNet.nrUe.ipv4.igmp robustnessVariable 2
par Eastleigh_5GNet.nrUe.ipv4.igmp queryInterval 125s
attr unit s
par Eastleigh_5GNet.nrUe.ipv4.igmp queryResponseInterval 10s
attr unit s
par Eastleigh_5GNet.nrUe.ipv4.igmp groupMembershipInterval 260s
attr unit s
par Eastleigh_5GNet.nrUe.ipv4.igmp otherQuerierPresentInterval 255s
attr unit s
par Eastleigh_5GNet.nrUe.ipv4.igmp startupQueryInterval 31.25s
attr unit s
par Eastleigh_5GNet.nrUe.ipv4.igmp startupQueryCount 2
par Eastleigh_5GNet.nrUe.ipv4.igmp lastMemberQueryInterval 1s
attr unit s
par Eastleigh_5GNet.nrUe.ipv4.igmp lastMemberQueryCount 2
par Eastleigh_5GNet.nrUe.ipv4.igmp unsolicitedReportInterval 10s
attr unit s
par Eastleigh_5GNet.nrUe.ipv4.icmp typename "\"inet.networklayer.ipv4.Icmp\""
par Eastleigh_5GNet.nrUe.ipv4.icmp interfaceTableModule "\"Eastleigh_5GNet.nrUe.interfaceTable\""
par Eastleigh_5GNet.nrUe.ipv4.icmp routingTableModule "\"Eastleigh_5GNet.nrUe.ipv4.routingTable\""
par Eastleigh_5GNet.nrUe.ipv4.icmp crcMode "\"declared\""
attr enum declared,computed
attr mutable ""
par Eastleigh_5GNet.nrUe.ipv4.icmp quoteLength 8B
attr mutable ""
attr unit B
par Eastleigh_5GNet.nrUe.ipv4.mp typename "\"inet.common.MessageDispatcher\""
par Eastleigh_5GNet.nrUe.ipv4.mp displayStringTextFormat "\"processed %p pk (%l)\""
par Eastleigh_5GNet.nrUe.ipv4.mp forwardServiceRegistration true
par Eastleigh_5GNet.nrUe.ipv4.mp forwardProtocolRegistration true
par Eastleigh_5GNet.nrUe.ipv4.ip typename "\"inet.networklayer.ipv4.Ipv4\""
par Eastleigh_5GNet.nrUe.ipv4.ip interfaceTableModule "\"Eastleigh_5GNet.nrUe.interfaceTable\""
par Eastleigh_5GNet.nrUe.ipv4.ip routingTableModule "\"Eastleigh_5GNet.nrUe.ipv4.routingTable\""
par Eastleigh_5GNet.nrUe.ipv4.ip arpModule "\"Eastleigh_5GNet.nrUe.ipv4.arp\""
par Eastleigh_5GNet.nrUe.ipv4.ip icmpModule "\"Eastleigh_5GNet.nrUe.ipv4.icmp\""
par Eastleigh_5GNet.nrUe.ipv4.ip crcMode "\"declared\""
attr enum declared,computed
par Eastleigh_5GNet.nrUe.ipv4.ip timeToLive 32
par Eastleigh_5GNet.nrUe.ipv4.ip multicastTimeToLive 32
par Eastleigh_5GNet.nrUe.ipv4.ip fragmentTimeout 60s
attr unit s
par Eastleigh_5GNet.nrUe.ipv4.ip limitedBroadcast false
par Eastleigh_5GNet.nrUe.ipv4.ip directBroadcastInterfaces "\"\""
scalar Eastleigh_5GNet.nrUe.ipv4.ip packetDropAddressResolutionFailed:count 0
attr interpolationmode none
attr recordingmode count
attr source packetDropReasonIsAddressResolutionFailed(packetDropped)
attr title "packet drop: address resolution failed, count"
scalar Eastleigh_5GNet.nrUe.ipv4.ip packetDropAddressResolutionFailed:sum(packetBytes) 0
attr interpolationmode none
attr recordingmode sum(packetBytes)
attr source packetDropReasonIsAddressResolutionFailed(packetDropped)
attr title "packet drop: address resolution failed, sum(packetBytes)"
scalar Eastleigh_5GNet.nrUe.ipv4.ip packetDropHopLimitReached:count 0
attr interpolationmode none
attr recordingmode count
attr source packetDropReasonIsHopLimitReached(packetDropped)
attr title "packet drop: hop limit reached, count"
scalar Eastleigh_5GNet.nrUe.ipv4.ip packetDropHopLimitReached:sum(packetBytes) 0
attr interpolationmode none
attr recordingmode sum(packetBytes)
attr source packetDropReasonIsHopLimitReached(packetDropped)
attr title "packet drop: hop limit reached, sum(packetBytes)"
scalar Eastleigh_5GNet.nrUe.ipv4.ip packetDropForwardingDisabled:count 0
attr interpolationmode none
attr recordingmode count
attr source packetDropReasonIsForwardingDisabled(packetDropped)
attr title "packet drop: forwarding disabled, count"
scalar Eastleigh_5GNet.nrUe.ipv4.ip packetDropForwardingDisabled:sum(packetBytes) 0
attr interpolationmode none
attr recordingmode sum(packetBytes)
attr source packetDropReasonIsForwardingDisabled(packetDropped)
attr title "packet drop: forwarding disabled, sum(packetBytes)"
scalar Eastleigh_5GNet.nrUe.ipv4.ip packetDropNoInterfaceFound:count 0
attr interpolationmode none
attr recordingmode count
attr source packetDropReasonIsNoInterfaceFound(packetDropped)
attr title "packet drop: no interface found, count"
scalar Eastleigh_5GNet.nrUe.ipv4.ip packetDropNoInterfaceFound:sum(packetBytes) 0
attr interpolationmode none
attr recordingmode sum(packetBytes)
attr source packetDropReasonIsNoInterfaceFound(packetDropped)
attr title "packet drop: no interface found, sum(packetBytes)"
scalar Eastleigh_5GNet.nrUe.ipv4.ip packetDropNoRouteFound:count 0
attr interpolationmode none
attr recordingmode count
attr source packetDropReasonIsNoRouteFound(packetDropped)
attr title "packet drop: no route found, count"
scalar Eastleigh_5GNet.nrUe.ipv4.ip packetDropNoRouteFound:sum(packetBytes) 0
attr interpolationmode none
attr recordingmode sum(packetBytes)
attr source packetDropReasonIsNoRouteFound(packetDropped)
attr title "packet drop: no route found, sum(packetBytes)"
scalar Eastleigh_5GNet.nrUe.ipv4.ip packetDropUndefined:count 0
attr interpolationmode none
attr recordingmode count
attr source packetDropReasonIsUndefined(packetDropped)
attr title "packet drop: undefined, count"
scalar Eastleigh_5GNet.nrUe.ipv4.ip packetDropUndefined:sum(packetBytes) 0
attr interpolationmode none
attr recordingmode sum(packetBytes)
attr source packetDropReasonIsUndefined(packetDropped)
attr title "packet drop: undefined, sum(packetBytes)"
par Eastleigh_5GNet.nrUe.ipv4.arp typename "\"inet.networklayer.arp.ipv4.Arp\""
par Eastleigh_5GNet.nrUe.ipv4.arp interfaceTableModule "\"Eastleigh_5GNet.nrUe.interfaceTable\""
par Eastleigh_5GNet.nrUe.ipv4.arp routingTableModule "\"Eastleigh_5GNet.nrUe.ipv4.routingTable\""
par Eastleigh_5GNet.nrUe.ipv4.arp retryTimeout 1s
attr unit s
par Eastleigh_5GNet.nrUe.ipv4.arp retryCount 3
par Eastleigh_5GNet.nrUe.ipv4.arp cacheTimeout 120s
attr unit s
par Eastleigh_5GNet.nrUe.ipv4.arp proxyArpInterfaces "\"*\""
scalar Eastleigh_5GNet.nrUe.ipv4.arp arpResolutionFailed:count 0
attr recordingmode count
attr title "ARP failed resolutions, count"
scalar Eastleigh_5GNet.nrUe.ipv4.arp arpResolutionCompleted:count 0
attr recordingmode count
attr title "ARP completed resolutions, count"
scalar Eastleigh_5GNet.nrUe.ipv4.arp arpResolutionInitiated:count 0
attr recordingmode count
attr title "ARP initiated resolutions, count"
scalar Eastleigh_5GNet.nrUe.ipv4.arp arpReplySent:count 0
attr recordingmode count
attr source arpReplySent
attr title "ARP replies sent, count"
scalar Eastleigh_5GNet.nrUe.ipv4.arp arpReplySent:sum(packetBytes) 0
attr recordingmode sum(packetBytes)
attr source arpReplySent
attr title "ARP replies sent, sum(packetBytes)"
scalar Eastleigh_5GNet.nrUe.ipv4.arp arpRequestSent:count 0
attr recordingmode count
attr source arpRequestSent
attr title "ARP request sent, count"
scalar Eastleigh_5GNet.nrUe.ipv4.arp arpRequestSent:sum(packetBytes) 0
attr recordingmode sum(packetBytes)
attr source arpRequestSent
attr title "ARP request sent, sum(packetBytes)"
par Eastleigh_5GNet.nrUe.ipv4.lp typename "\"inet.common.MessageDispatcher\""
par Eastleigh_5GNet.nrUe.ipv4.lp displayStringTextFormat "\"processed %p pk (%l)\""
par Eastleigh_5GNet.nrUe.ipv4.lp forwardServiceRegistration true
par Eastleigh_5GNet.nrUe.ipv4.lp forwardProtocolRegistration true
par Eastleigh_5GNet.nrUe.ipv4 typename "\"inet.networklayer.ipv4.Ipv4NetworkLayer\""
par Eastleigh_5GNet.nrUe.ipv4 forwarding false
par Eastleigh_5GNet.nrUe.ipv4 multicastForwarding false
par Eastleigh_5GNet.nrUe.ipv4 interfaceTableModule "\"Eastleigh_5GNet.nrUe.interfaceTable\""
par Eastleigh_5GNet.nrUe.ipv4 displayStringTextFormat "\"%i\""
par Eastleigh_5GNet.nrUe.udp typename "\"inet.transportlayer.udp.Udp\""
par Eastleigh_5GNet.nrUe.udp interfaceTableModule "\"Eastleigh_5GNet.nrUe.interfaceTable\""
par Eastleigh_5GNet.nrUe.udp icmpModule "\"^.ipv4.icmp\""
par Eastleigh_5GNet.nrUe.udp icmpv6Module "\"^.ipv6.icmpv6\""
par Eastleigh_5GNet.nrUe.udp crcMode "\"declared\""
attr enum disabled,declared,computed
par Eastleigh_5GNet.nrUe.udp defaultMulticastLoop true
scalar Eastleigh_5GNet.nrUe.udp packetReceived:count 0
attr interpolationmode none
attr recordingmode count
attr source packetReceived
attr title "packets received, count"
scalar Eastleigh_5GNet.nrUe.udp packetReceived:sum(packetBytes) 0
attr interpolationmode none
attr recordingmode sum(packetBytes)
attr source packetReceived
attr title "packets received, sum(packetBytes)"
scalar Eastleigh_5GNet.nrUe.udp packetSent:count 156
attr interpolationmode none
attr recordingmode count
attr source packetSent
attr title "packets sent, count"
scalar Eastleigh_5GNet.nrUe.udp packetSent:sum(packetBytes) 16848
attr interpolationmode none
attr recordingmode sum(packetBytes)
attr source packetSent
attr title "packets sent, sum(packetBytes)"
scalar Eastleigh_5GNet.nrUe.udp passedUpPk:count 0
attr interpolationmode none
attr recordingmode count
attr source packetSentToUpper
attr title "packets passed up, count"
scalar Eastleigh_5GNet.nrUe.udp droppedPkWrongPort:count 0
attr interpolationmode none
attr recordingmode count
attr source packetDropReasonIsNoPortFound(packetDropped)
attr title "packets dropped (wrong port), count"
scalar Eastleigh_5GNet.nrUe.udp droppedPkBadChecksum:count 0
attr interpolationmode none
attr recordingmode count
attr source packetDropReasonIsIncorrectlyReceived(packetDropped)
attr title "packets dropped (checksum error), count"
par Eastleigh_5GNet.nrUe.tcp typename "\"inet.transportlayer.tcp.Tcp\""
par Eastleigh_5GNet.nrUe.tcp crcMode "\"declared\""
attr enum declared,computed
par Eastleigh_5GNet.nrUe.tcp advertisedWindow 7504
par Eastleigh_5GNet.nrUe.tcp delayedAcksEnabled false
par Eastleigh_5GNet.nrUe.tcp nagleEnabled true
par Eastleigh_5GNet.nrUe.tcp limitedTransmitEnabled false
par Eastleigh_5GNet.nrUe.tcp increasedIWEnabled false
par Eastleigh_5GNet.nrUe.tcp sackSupport false
par Eastleigh_5GNet.nrUe.tcp windowScalingSupport false
par Eastleigh_5GNet.nrUe.tcp windowScalingFactor -1
par Eastleigh_5GNet.nrUe.tcp timestampSupport false
par Eastleigh_5GNet.nrUe.tcp mss 536
par Eastleigh_5GNet.nrUe.tcp msl 120s
attr unit s
par Eastleigh_5GNet.nrUe.tcp tcpAlgorithmClass "\"TcpReno\""
attr enum TcpVegas,TcpWestwood,TcpNewReno,TcpReno,TcpTahoe,TcpNoCongestionControl
par Eastleigh_5GNet.nrUe.tcp useDataNotification false
par Eastleigh_5GNet.nrUe.tcp dupthresh 3
par Eastleigh_5GNet.nrUe.tcp initialSsthresh 4294967295
par Eastleigh_5GNet.nrUe.tcp stopOperationExtraTime 0s
attr unit s
par Eastleigh_5GNet.nrUe.tcp stopOperationTimeout 2s
attr unit s
par Eastleigh_5GNet.nrUe.tcp ecnWillingness false
par Eastleigh_5GNet.nrUe.tcp dctcpGamma 0.0625
par Eastleigh_5GNet.nrUe.app[0] typename "\"simu5g.apps.cbr.CbrSender\""
par Eastleigh_5GNet.nrUe.app[0] localPort 3088
par Eastleigh_5GNet.nrUe.app[0] destPort 3000
par Eastleigh_5GNet.nrUe.app[0] destAddress "\"server\""
par Eastleigh_5GNet.nrUe.app[0] PacketSize 100
par Eastleigh_5GNet.nrUe.app[0] sampling_time 0.02s
attr unit s
par Eastleigh_5GNet.nrUe.app[0] startTime 0.0135191s
attr unit s
par Eastleigh_5GNet.nrUe.app[0] finishTime 19.9145s
attr unit s
par Eastleigh_5GNet.nrUe.app[0] tos -1
scalar Eastleigh_5GNet.nrUe.app[0] cbrGeneratedBytes:timeavg 100
attr recordingmode timeavg
attr source cbrGeneratedBytesSignal
attr title "Bytes generated by the application, timeavg"
attr unit Bps
scalar Eastleigh_5GNet.nrUe.app[0] cbrGeneratedBytes:mean 100
attr recordingmode mean
attr source cbrGeneratedBytesSignal
attr title "Bytes generated by the application, mean"
attr unit Bps
scalar Eastleigh_5GNet.nrUe.app[0] cbrGeneratedBytes:last(sumPerDuration) 5010.4076890214
attr recordingmode last(sumPerDuration)
attr source cbrGeneratedBytesSignal
attr title "Bytes generated by the application, last(sumPerDuration)"
attr unit Bps
scalar Eastleigh_5GNet.nrUe.app[0] cbrGeneratedBytes:sum 15600
attr recordingmode sum
attr source cbrGeneratedBytesSignal
attr title "Bytes generated by the application, sum"
attr unit Bps
scalar Eastleigh_5GNet.nrUe.app[0] cbrGeneratedThroughtput:timeavg -nan
attr recordingmode timeavg
attr source cbrGeneratedThroughtputSignal
attr title "Throughput generated by the application, timeavg"
attr unit Bps
scalar Eastleigh_5GNet.nrUe.app[0] cbrGeneratedThroughtput:mean 4996.796120311
attr recordingmode mean
attr source cbrGeneratedThroughtputSignal
attr title "Throughput generated by the application, mean"
attr unit Bps
scalar Eastleigh_5GNet.nrUe.app[0] cbrGeneratedThroughtput:last(sumPerDuration) 1600.5109915356
attr recordingmode last(sumPerDuration)
attr source cbrGeneratedThroughtputSignal
attr title "Throughput generated by the application, last(sumPerDuration)"
attr unit Bps
scalar Eastleigh_5GNet.nrUe.app[0] cbrGeneratedThroughtput:sum 4996.796120311
attr recordingmode sum
attr source cbrGeneratedThroughtputSignal
attr title "Throughput generated by the application, sum"
attr unit Bps
par Eastleigh_5GNet.nrUe.at typename "\"inet.common.MessageDispatcher\""
par Eastleigh_5GNet.nrUe.at displayStringTextFormat "\"processed %p pk (%l)\""
par Eastleigh_5GNet.nrUe.at forwardServiceRegistration true
par Eastleigh_5GNet.nrUe.at forwardProtocolRegistration true
par Eastleigh_5GNet.nrUe.tn typename "\"inet.common.MessageDispatcher\""
par Eastleigh_5GNet.nrUe.tn displayStringTextFormat "\"processed %p pk (%l)\""
par Eastleigh_5GNet.nrUe.tn forwardServiceRegistration true
par Eastleigh_5GNet.nrUe.tn forwardProtocolRegistration true
par Eastleigh_5GNet.nrUe.nl typename "\"inet.common.MessageDispatcher\""
par Eastleigh_5GNet.nrUe.nl displayStringTextFormat "\"processed %p pk (%l)\""
par Eastleigh_5GNet.nrUe.nl forwardServiceRegistration true
par Eastleigh_5GNet.nrUe.nl forwardProtocolRegistration true
par Eastleigh_5GNet.nrUe typename "\"simu5g.nodes.NR.NRUe\""
par Eastleigh_5GNet.nrUe numApps 1
par Eastleigh_5GNet.nrUe hasUdp true
par Eastleigh_5GNet.nrUe hasTcp true
par Eastleigh_5GNet.nrUe hasSctp false
par Eastleigh_5GNet.nrUe nodeType "\"UE\""
par Eastleigh_5GNet.nrUe masterId 0
attr mutable ""
par Eastleigh_5GNet.nrUe macNodeId 1025
attr mutable ""
par Eastleigh_5GNet.nrUe macCellId 0
attr mutable ""
par Eastleigh_5GNet.nrUe nicType "\"NRNicUe\""
par Eastleigh_5GNet.nrUe hasIpv4 true
par Eastleigh_5GNet.nrUe hasIpv6 false
par Eastleigh_5GNet.nrUe numEthInterfaces 0
par Eastleigh_5GNet.nrUe extHostAddress "\"\""
par Eastleigh_5GNet.nrUe numLoInterfaces 1
par Eastleigh_5GNet.nrUe numPcapRecorders 0
par Eastleigh_5GNet.nrUe hasRNISupport false
par Eastleigh_5GNet.nrUe nrMasterId 7
attr mutable ""
par Eastleigh_5GNet.nrUe nrMacNodeId 2049
attr mutable ""
par Eastleigh_5GNet.nrUe nrMacCellId 1
attr mutable ""
par Eastleigh_5GNet typename "\"_5g_mmwave.simulations.Eastleigh_5GNet\""

