version 3
run Test-0-20240402-19:15:27-20204
attr configname Test
attr datetime 20240402-19:15:27
attr datetimef 20240402-191527
attr experiment Test
attr inifile omnetpp.ini
attr iterationvars ""
attr iterationvarsd ""
attr iterationvarsf ""
attr measurement ""
attr network Eastleigh_5GNet
attr processid 20204
attr repetition 0
attr replication #0
attr resultdir results
attr runnumber 0
attr seedset 0
config image-path ../images;../../inet4.5/images;../../simu5g/images
config extends General
config *.nrUe*.numApps 1
config *.server.numApps 1
config *.nrUe*.app[*].typename CbrReceiver
config *.nrUe*.app[*].localPort 3000
config *.server.app[*].typename CbrSender
config *.server.app[*].PacketSize 100
config *.server.app[*].sampling_time 0.02s
config *.server.app[*].destAddress "\"ue[\" + string(ancestorIndex(0)) + \"]\""
config *.server.app[*].destPort 3000
config *.server.app[*].localPort 3088+ancestorIndex(0)
config *.server.app[*].startTime uniform(0s,0.02s)
config *.server.app[*].finishTime uniform(19.9s,19.92s)
config network Eastleigh_5GNet
config sim-time-limit 20s
config **.mobility.constraintAreaMaxX 1000m
config **.mobility.constraintAreaMaxY 1000m
config **.mobility.constraintAreaMinX 0m
config **.mobility.constraintAreaMinY 0m
config **.mobility.constraintAreaMinZ 0m
config **.mobility.constraintAreaMaxZ 0m
config **.mobility.initFromDisplayString false
config *.bgCell.*.isNr true
config *.bgCell.*.carrierFrequency default
config *.bgCell.*.numBands default
config *.bgCell.*.txPower default
config *.bgCell.*.fading_type default
config *.bgCell.*.scenario default
config *.bgCell.*.nodeb_height default
config *.bgCell.*.building_height 7
config **.ueTxPower default
config **.eNodeBTxPower default
config *.gnb*.txPower default
config *.gnb*.cellularNic.channelModel[*].nodeb_height default
config *.gnb*.cellularNic.channelModel[*].building_height 7
config *.gnb*.*.channelModel[*].antennaGainEnB default
config *.gnb*.*.channelModel[*].antennaGainUe default
config *.gnb0.mobility.initialX 98.02m
config *.gnb0.mobility.initialY 106.46999m
config *.gnb1.mobility.initialX 343.06998m
config *.gnb1.mobility.initialY 106.46999m
config *.nrUe*.cellularNic.channelModel[*].nodeb_height default
config *.nrUe*.*.channelModel[*].building_height 7
config *.nrUe*.*.channelModel[*].antennaGainEnB default
config *.nrUe*.*.channelModel[*].antennaGainUe default
config *.ue0.mobility.initialX 50m
config *.ue0.mobility.initialY 300m
config *.carrierAggregation.numComponentCarriers default
config *.carrierAggregation.componentCarrier[0].numerologyIndex default
config *.carrierAggregation.componentCarrier[0].carrierFrequency default
config *.carrierAggregation.componentCarrier[0].numBands default
config *.nrUe*.macCellId 0
config *.nrUe*.masterId 0
config *.nrUe*.nrMacCellId 1
config *.nrUe*.nrMasterId 1
config **.dynamicCellAssociation true
config **.enableHandover true
config *.gnb*.numX2Apps 1
config *.gnb*.x2App[*].server.localPort "5000 + ancestorIndex(1)"
config *.gnb0.x2App[0].client.connectAddress "\"gnb1%x2ppp0\""
config *.gnb1.x2App[0].client.connectAddress "\"gnb0%x2ppp0\""

scalar Eastleigh_5GNet.gnb0.x2App[0].client ums 1452
scalar Eastleigh_5GNet.gnb1.x2App[0].client ums 1452

